1
    SWAT Sep 7    VER 2018/Rev 670                                                                       0/ 0/   0      0: 0: 0

    General Input/Output section (file.cio):                                        
    5/13/2020 12:00:00 AM ARCGIS-SWAT interface AV                                  
                                                                                    
         Number of years in run:    7
         Area of watershed:    10212.716 km2
1
    SWAT Sep 7    VER 2018/Rev 670                                                  

    General Input/Output section (file.cio):                                        
    5/13/2020 12:00:00 AM ARCGIS-SWAT interface AV                                  
                                                                                    
Annual Summary for Watershed in year    1 of simulation

UNIT                                    PERCO    TILE                           WATER     SED     NO3     NO3     NO3     NO3        N       P       P
TIME     PREC    SURQ    LATQ     GWQ    LATE       Q     SW       ET     PET   YIELD   YIELD    SURQ    LATQ    PERC    CROP  ORGANIC SOLUBLE ORGANIC TILENO3
         (mm)    (mm)    (mm)    (mm)    (mm)    (mm)    (mm)    (mm)    (mm)    (mm)   (t/ha)  ------------------(kg nutrient/ha)-------------------- (kg/ha)
1
    SWAT Sep 7    VER 2018/Rev 670                                                  

    General Input/Output section (file.cio):                                        
    5/13/2020 12:00:00 AM ARCGIS-SWAT interface AV                                  
                                                                                    
Annual Summary for Watershed in year    2 of simulation

UNIT                                    PERCO    TILE                           WATER     SED     NO3     NO3     NO3     NO3        N       P       P
TIME     PREC    SURQ    LATQ     GWQ    LATE       Q     SW       ET     PET   YIELD   YIELD    SURQ    LATQ    PERC    CROP  ORGANIC SOLUBLE ORGANIC TILENO3
         (mm)    (mm)    (mm)    (mm)    (mm)    (mm)    (mm)    (mm)    (mm)    (mm)   (t/ha)  ------------------(kg nutrient/ha)-------------------- (kg/ha)
1
    SWAT Sep 7    VER 2018/Rev 670                                                  

    General Input/Output section (file.cio):                                        
    5/13/2020 12:00:00 AM ARCGIS-SWAT interface AV                                  
                                                                                    
Annual Summary for Watershed in year    3 of simulation

UNIT                                    PERCO    TILE                           WATER     SED     NO3     NO3     NO3     NO3        N       P       P
TIME     PREC    SURQ    LATQ     GWQ    LATE       Q     SW       ET     PET   YIELD   YIELD    SURQ    LATQ    PERC    CROP  ORGANIC SOLUBLE ORGANIC TILENO3
         (mm)    (mm)    (mm)    (mm)    (mm)    (mm)    (mm)    (mm)    (mm)    (mm)   (t/ha)  ------------------(kg nutrient/ha)-------------------- (kg/ha)
1
    SWAT Sep 7    VER 2018/Rev 670                                                  

    General Input/Output section (file.cio):                                        
    5/13/2020 12:00:00 AM ARCGIS-SWAT interface AV                                  
                                                                                    
Annual Summary for Watershed in year    4 of simulation

UNIT                                    PERCO    TILE                           WATER     SED     NO3     NO3     NO3     NO3        N       P       P
TIME     PREC    SURQ    LATQ     GWQ    LATE       Q     SW       ET     PET   YIELD   YIELD    SURQ    LATQ    PERC    CROP  ORGANIC SOLUBLE ORGANIC TILENO3
         (mm)    (mm)    (mm)    (mm)    (mm)    (mm)    (mm)    (mm)    (mm)    (mm)   (t/ha)  ------------------(kg nutrient/ha)-------------------- (kg/ha)
1
    SWAT Sep 7    VER 2018/Rev 670                                                  

    General Input/Output section (file.cio):                                        
    5/13/2020 12:00:00 AM ARCGIS-SWAT interface AV                                  
                                                                                    
Annual Summary for Watershed in year    5 of simulation

UNIT                                    PERCO    TILE                           WATER     SED     NO3     NO3     NO3     NO3        N       P       P
TIME     PREC    SURQ    LATQ     GWQ    LATE       Q     SW       ET     PET   YIELD   YIELD    SURQ    LATQ    PERC    CROP  ORGANIC SOLUBLE ORGANIC TILENO3
         (mm)    (mm)    (mm)    (mm)    (mm)    (mm)    (mm)    (mm)    (mm)    (mm)   (t/ha)  ------------------(kg nutrient/ha)-------------------- (kg/ha)
1
    SWAT Sep 7    VER 2018/Rev 670                                                  

    General Input/Output section (file.cio):                                        
    5/13/2020 12:00:00 AM ARCGIS-SWAT interface AV                                  
                                                                                    
Annual Summary for Watershed in year    6 of simulation

UNIT                                    PERCO    TILE                           WATER     SED     NO3     NO3     NO3     NO3        N       P       P
TIME     PREC    SURQ    LATQ     GWQ    LATE       Q     SW       ET     PET   YIELD   YIELD    SURQ    LATQ    PERC    CROP  ORGANIC SOLUBLE ORGANIC TILENO3
         (mm)    (mm)    (mm)    (mm)    (mm)    (mm)    (mm)    (mm)    (mm)    (mm)   (t/ha)  ------------------(kg nutrient/ha)-------------------- (kg/ha)
    1    0.05    0.00    0.00    0.00    0.00    0.00   45.79    0.05    0.20    0.00    0.00    0.00    0.00    0.00    0.00     0.00    0.00    0.00    0.00
    2    0.00    0.00    0.00    0.00    0.00    0.00   45.79    0.06    0.08    0.00    0.00    0.00    0.00    0.00    0.00     0.00    0.00    0.00    0.00
    3    0.27    0.00    0.00    0.00    0.00    0.00   45.75    0.07    0.21    0.00    0.00    0.00    0.00    0.00    0.00     0.00    0.00    0.00    0.00
    4    0.36    0.00    0.00    0.00    0.00    0.00   45.75    0.03    0.04    0.00    0.00    0.00    0.00    0.00    0.00     0.00    0.00    0.00    0.00
    5    0.00    0.00    0.00    0.00    0.00    0.00   45.75    0.04    0.06    0.00    0.00    0.00    0.00    0.00    0.00     0.00    0.00    0.00    0.00
    6    0.00    0.00    0.00    0.00    0.00    0.00   45.72    0.05    0.16    0.00    0.00    0.00    0.00    0.00    0.00     0.00    0.00    0.00    0.00
    7    0.00    0.00    0.00    0.00    0.00    0.00   45.70    0.05    0.14    0.00    0.00    0.00    0.00    0.00    0.00     0.00    0.00    0.00    0.00
    8    0.58    0.00    0.00    0.00    0.00    0.00   45.70    0.01    0.01    0.00    0.00    0.00    0.00    0.00    0.00     0.00    0.00    0.00    0.00
    9    0.03    0.00    0.00    0.00    0.00    0.00   45.65    0.08    0.29    0.00    0.00    0.00    0.00    0.00    0.00     0.00    0.00    0.00    0.00
   10    0.18    0.00    0.00    0.00    0.00    0.00   45.64    0.03    0.09    0.00    0.00    0.00    0.00    0.00    0.00     0.00    0.00    0.00    0.00
   11    0.89    0.00    0.00    0.00    0.00    0.00   45.64    0.01    0.01    0.00    0.00    0.00    0.00    0.00    0.00     0.00    0.00    0.00    0.00
   12    0.35    0.00    0.00    0.00    0.00    0.00   45.62    0.03    0.08    0.00    0.00    0.00    0.00    0.00    0.00     0.00    0.00    0.00    0.00
   13    0.03    0.00    0.00    0.00    0.00    0.00   45.61    0.05    0.15    0.00    0.00    0.00    0.00    0.00    0.00     0.00    0.00    0.00    0.00
   14    0.04    0.00    0.00    0.00    0.00    0.00   45.60    0.03    0.09    0.00    0.00    0.00    0.00    0.00    0.00     0.00    0.00    0.00    0.00
   15    0.00    0.00    0.00    0.00    0.00    0.00   45.53    0.10    0.34    0.00    0.00    0.00    0.00    0.00    0.00     0.00    0.00    0.00    0.00
   16    0.00    0.00    0.00    0.00    0.00    0.00   45.47    0.10    0.35    0.00    0.00    0.00    0.00    0.00    0.00     0.00    0.00    0.00    0.00
   17    0.05    0.00    0.00    0.00    0.00    0.00   45.46    0.04    0.12    0.00    0.00    0.00    0.00    0.00    0.00     0.00    0.00    0.00    0.00
   18    0.08    0.00    0.00    0.00    0.00    0.00   45.42    0.06    0.19    0.00    0.00    0.00    0.00    0.00    0.00     0.00    0.00    0.00    0.00
   19    0.15    0.00    0.00    0.00    0.00    0.00   45.40    0.04    0.18    0.00    0.00    0.00    0.00    0.00    0.00     0.00    0.00    0.00    0.00
   20    0.00    0.00    0.00    0.00    0.00    0.00   45.40    0.02    0.03    0.00    0.00    0.00    0.00    0.00    0.00     0.00    0.00    0.00    0.00
   21    0.36    0.00    0.00    0.00    0.00    0.00   45.40    0.02    0.03    0.00    0.00    0.00    0.00    0.00    0.00     0.00    0.00    0.00    0.00
   22    0.12    0.00    0.00    0.00    0.00    0.00   45.39    0.04    0.11    0.00    0.00    0.00    0.00    0.00    0.00     0.00    0.00    0.00    0.00
   23    0.56    0.00    0.00    0.00    0.00    0.00   45.39    0.02    0.03    0.00    0.00    0.00    0.00    0.00    0.00     0.00    0.00    0.00    0.00
   24    0.14    0.00    0.00    0.00    0.00    0.00   45.32    0.09    0.48    0.00    0.00    0.00    0.00    0.00    0.00     0.00    0.00    0.00    0.00
   25    0.00    0.00    0.00    0.00    0.00    0.00   45.24    0.13    0.55    0.00    0.00    0.00    0.00    0.00    0.00     0.00    0.00    0.00    0.00
   26    0.14    0.00    0.00    0.00    0.00    0.00   45.20    0.07    0.22    0.00    0.00    0.00    0.00    0.00    0.00     0.00    0.00    0.00    0.00
   27    0.00    0.00    0.00    0.00    0.00    0.00   45.17    0.07    0.27    0.00    0.00    0.00    0.00    0.00    0.00     0.00    0.00    0.00    0.00
   28    0.00    0.00    0.00    0.00    0.00    0.00   45.13    0.09    0.37    0.00    0.00    0.00    0.00    0.00    0.00     0.00    0.00    0.00    0.00
   29    0.49    0.00    0.00    0.00    0.00    0.00   45.13    0.03    0.07    0.00    0.00    0.00    0.00    0.00    0.00     0.00    0.00    0.00    0.00
   30    0.57    0.00    0.00    0.00    0.00    0.00   45.13    0.02    0.02    0.00    0.00    0.00    0.00    0.00    0.00     0.00    0.00    0.00    0.00
   31    0.99    0.00    0.00    0.00    0.00    0.00   45.12    0.03    0.10    0.00    0.00    0.00    0.00    0.00    0.00     0.00    0.00    0.00    0.00
    1    6.41    0.00    0.00    0.03    0.00    0.00   45.12    1.56    5.07    0.11    0.00    0.00    0.00    0.00    0.00     0.00    0.00    0.00    0.00
   32    0.18    0.00    0.00    0.00    0.00    0.00   45.11    0.03    0.07    0.00    0.00    0.00    0.00    0.00    0.00     0.00    0.00    0.00    0.00
   33    0.06    0.00    0.00    0.00    0.00    0.00   45.11    0.03    0.05    0.00    0.00    0.00    0.00    0.00    0.00     0.00    0.00    0.00    0.00
   34    0.00    0.00    0.00    0.00    0.00    0.00   45.09    0.07    0.28    0.00    0.00    0.00    0.00    0.00    0.00     0.00    0.00    0.00    0.00
   35    0.00    0.00    0.00    0.00    0.00    0.00   45.04    0.10    0.44    0.00    0.00    0.00    0.00    0.00    0.00     0.00    0.00    0.00    0.00
   36    0.00    0.00    0.00    0.00    0.00    0.00   45.04    0.08    0.16    0.00    0.00    0.00    0.00    0.00    0.00     0.00    0.00    0.00    0.00
   37    0.26    0.00    0.00    0.00    0.00    0.00   45.04    0.02    0.03    0.00    0.00    0.00    0.00    0.00    0.00     0.00    0.00    0.00    0.00
   38    0.56    0.00    0.00    0.00    0.00    0.00   45.04    0.02    0.03    0.00    0.00    0.00    0.00    0.00    0.00     0.00    0.00    0.00    0.00
   39    0.30    0.00    0.00    0.00    0.00    0.00   45.04    0.02    0.04    0.00    0.00    0.00    0.00    0.00    0.00     0.00    0.00    0.00    0.00
   40    0.23    0.00    0.00    0.00    0.00    0.00   45.04    0.03    0.06    0.00    0.00    0.00    0.00    0.00    0.00     0.00    0.00    0.00    0.00
   41    0.19    0.00    0.00    0.00    0.00    0.00   45.03    0.04    0.15    0.00    0.00    0.00    0.00    0.00    0.00     0.00    0.00    0.00    0.00
   42    1.52    0.00    0.00    0.00    0.00    0.00   45.03    0.02    0.03    0.00    0.00    0.00    0.00    0.00    0.00     0.00    0.00    0.00    0.00
   43    0.11    0.00    0.00    0.00    0.00    0.00   45.02    0.04    0.16    0.00    0.00    0.00    0.00    0.00    0.00     0.00    0.00    0.00    0.00
   44    0.03    0.00    0.00    0.00    0.00    0.00   44.99    0.08    0.33    0.00    0.00    0.00    0.00    0.00    0.00     0.00    0.00    0.00    0.00
   45    0.73    0.00    0.00    0.00    0.00    0.00   44.99    0.03    0.04    0.00    0.00    0.00    0.00    0.00    0.00     0.00    0.00    0.00    0.00
   46    1.10    0.00    0.00    0.00    0.00    0.00   44.99    0.04    0.05    0.00    0.00    0.00    0.00    0.00    0.00     0.00    0.00    0.00    0.00
   47    0.91    0.00    0.00    0.00    0.00    0.00   44.99    0.04    0.06    0.00    0.00    0.00    0.00    0.00    0.00     0.00    0.00    0.00    0.00
   48    0.13    0.00    0.00    0.00    0.00    0.00   44.88    0.15    0.66    0.00    0.00    0.00    0.00    0.00    0.00     0.00    0.00    0.00    0.00
   49    0.00    0.00    0.00    0.00    0.00    0.00   44.80    0.13    0.67    0.00    0.00    0.00    0.00    0.00    0.00     0.00    0.00    0.00    0.00
   50    0.04    0.00    0.00    0.00    0.00    0.00   44.78    0.07    0.36    0.00    0.00    0.00    0.00    0.00    0.00     0.00    0.00    0.00    0.00
   51    1.09    0.00    0.00    0.00    0.00    0.00   44.78    0.02    0.03    0.00    0.00    0.00    0.00    0.00    0.00     0.00    0.00    0.00    0.00
   52    1.22    0.00    0.00    0.00    0.00    0.00   44.77    0.03    0.11    0.00    0.00    0.00    0.00    0.00    0.00     0.00    0.00    0.00    0.00
   53    0.00    0.00    0.00    0.00    0.00    0.00   44.68    0.14    0.84    0.00    0.00    0.00    0.00    0.00    0.00     0.00    0.00    0.00    0.00
   54    1.36    0.00    0.00    0.00    0.00    0.00   44.68    0.01    0.02    0.00    0.00    0.00    0.00    0.00    0.00     0.00    0.00    0.00    0.00
   55    1.40    0.00    0.00    0.00    0.00    0.00   44.68    0.02    0.03    0.00    0.00    0.00    0.00    0.00    0.00     0.00    0.00    0.00    0.00
   56    0.39    0.00    0.00    0.00    0.00    0.00   44.68    0.03    0.05    0.00    0.00    0.00    0.00    0.00    0.00     0.00    0.00    0.00    0.00
   57    0.00    0.00    0.00    0.00    0.00    0.00   44.65    0.08    0.41    0.00    0.00    0.00    0.00    0.00    0.00     0.00    0.00    0.00    0.00
   58    0.00    0.00    0.00    0.00    0.00    0.00   44.64    0.08    0.38    0.00    0.00    0.00    0.00    0.00    0.00     0.00    0.00    0.00    0.00
   59    0.00    0.00    0.00    0.00    0.00    0.00   44.64    0.06    0.09    0.00    0.00    0.00    0.00    0.00    0.00     0.00    0.00    0.00    0.00
    2   11.82    0.00    0.00    0.01    0.00    0.00   44.64    1.50    5.62    0.06    0.00    0.00    0.00    0.00    0.00     0.00    0.00    0.00    0.00
   60    0.91    0.00    0.00    0.00    0.00    0.00   44.64    0.06    0.08    0.00    0.00    0.00    0.00    0.00    0.00     0.00    0.00    0.00    0.00
   61    0.40    0.00    0.00    0.00    0.00    0.00   44.64    0.07    0.19    0.00    0.00    0.00    0.00    0.00    0.00     0.00    0.00    0.00    0.00
   62    0.05    0.00    0.00    0.00    0.00    0.00   44.64    0.06    0.09    0.00    0.00    0.00    0.00    0.00    0.00     0.00    0.00    0.00    0.00
   63    0.00    0.00    0.00    0.00    0.00    0.00   44.57    0.14    0.95    0.00    0.00    0.00    0.00    0.00    0.00     0.00    0.00    0.00    0.00
   64    0.00    0.00    0.00    0.00    0.00    0.00   44.55    0.09    0.53    0.00    0.00    0.00    0.00    0.00    0.00     0.00    0.00    0.00    0.00
   65    0.81    0.00    0.00    0.00    0.00    0.00   44.55    0.05    0.08    0.00    0.00    0.00    0.00    0.00    0.00     0.00    0.00    0.00    0.00
   66    0.96    0.00    0.00    0.00    0.00    0.00   44.55    0.04    0.06    0.00    0.00    0.00    0.00    0.00    0.00     0.00    0.00    0.00    0.00
   67    0.13    0.00    0.00    0.00    0.00    0.00   44.54    0.06    0.31    0.00    0.00    0.00    0.00    0.00    0.00     0.00    0.00    0.00    0.00
   68    0.49    0.00    0.00    0.00    0.00    0.00   44.54    0.03    0.10    0.00    0.00    0.00    0.00    0.00    0.00     0.00    0.00    0.00    0.00
   69    0.00    0.00    0.00    0.00    0.00    0.00   44.54    0.09    0.24    0.00    0.00    0.00    0.00    0.00    0.00     0.00    0.00    0.00    0.00
   70    0.00    0.00    0.00    0.00    0.00    0.00   44.53    0.07    0.28    0.00    0.00    0.00    0.00    0.00    0.00     0.00    0.00    0.00    0.00
   71    0.00    0.00    0.00    0.00    0.00    0.00   44.49    0.12    0.80    0.00    0.00    0.00    0.00    0.00    0.00     0.00    0.00    0.00    0.00
   72    1.94    0.00    0.00    0.00    0.00    0.00   44.49    0.04    0.08    0.00    0.00    0.00    0.00    0.00    0.00     0.00    0.00    0.00    0.00
   73    0.04    0.00    0.00    0.00    0.00    0.00   44.47    0.09    0.45    0.00    0.00    0.00    0.00    0.00    0.00     0.00    0.00    0.00    0.00
   74    0.08    0.00    0.00    0.00    0.00    0.00   44.45    0.10    0.47    0.00    0.00    0.00    0.00    0.00    0.00     0.00    0.00    0.00    0.00
   75    0.00    0.00    0.00    0.00    0.00    0.00   44.44    0.12    0.58    0.00    0.00    0.00    0.00    0.00    0.00     0.00    0.00    0.00    0.00
   76    0.00    0.00    0.00    0.00    0.00    0.00   44.41    0.12    0.77    0.00    0.00    0.00    0.00    0.00    0.00     0.00    0.00    0.00    0.00
   77    0.00    0.00    0.00    0.00    0.00    0.00   44.39    0.09    0.56    0.00    0.00    0.00    0.00    0.00    0.00     0.00    0.00    0.00    0.00
   78    0.35    0.00    0.00    0.00    0.00    0.00   44.37    0.07    0.66    0.00    0.00    0.00    0.00    0.00    0.00     0.00    0.00    0.00    0.00
   79    0.00    0.00    0.00    0.00    0.00    0.00   44.37    0.09    0.38    0.00    0.00    0.00    0.00    0.00    0.00     0.00    0.00    0.00    0.00
   80    0.26    0.00    0.00    0.00    0.00    0.00   44.36    0.09    0.43    0.00    0.00    0.00    0.00    0.00    0.00     0.00    0.00    0.00    0.00
   81    0.12    0.00    0.00    0.00    0.00    0.00   44.36    0.11    0.85    0.00    0.00    0.00    0.00    0.00    0.00     0.00    0.00    0.00    0.00
   82    3.02    0.00    0.00    0.00    0.00    0.00   44.34    0.06    0.39    0.00    0.00    0.00    0.00    0.00    0.00     0.00    0.00    0.00    0.00
   83    0.00    0.00    0.00    0.00    0.00    0.00   44.32    0.15    1.01    0.00    0.00    0.00    0.00    0.00    0.00     0.00    0.00    0.00    0.00
   84    0.04    0.00    0.00    0.00    0.00    0.00   44.31    0.09    0.36    0.00    0.00    0.00    0.00    0.00    0.00     0.00    0.00    0.00    0.00
   85    2.33    0.00    0.00    0.00    0.00    0.00   44.31    0.06    0.36    0.00    0.00    0.00    0.00    0.00    0.00     0.00    0.00    0.00    0.00
   86    0.62    0.00    0.00    0.00    0.00    0.00   44.31    0.05    0.08    0.00    0.00    0.00    0.00    0.00    0.00     0.00    0.00    0.00    0.00
   87    0.92    0.00    0.00    0.00    0.00    0.00   44.30    0.02    0.12    0.00    0.00    0.00    0.00    0.00    0.00     0.00    0.00    0.00    0.00
   88    1.68    0.00    0.00    0.00    0.00    0.00   44.30    0.04    0.11    0.00    0.00    0.00    0.00    0.00    0.00     0.00    0.00    0.00    0.00
   89    0.30    0.00    0.00    0.00    0.00    0.00   44.30    0.11    0.41    0.00    0.00    0.00    0.00    0.00    0.00     0.00    0.00    0.00    0.00
   90    4.26    0.00    0.00    0.00    0.00    0.00   44.30    0.06    0.10    0.00    0.00    0.00    0.00    0.00    0.00     0.00    0.00    0.00    0.00
    3   19.71    0.00    0.00    0.00    0.00    0.00   44.30    2.47   11.89    0.05    0.00    0.00    0.00    0.00    0.00     0.00    0.00    0.00    0.00
   91    0.00    0.83    0.00    0.00    0.00    0.00   45.05    0.58    1.68    0.71    0.95    0.00    0.00    0.00    0.00     0.36    0.00    0.04    0.00
   92    0.00    0.20    0.00    0.00    0.00    0.00   45.42    0.42    1.37    0.28    0.00    0.00    0.00    0.00    0.00     0.10    0.00    0.01    0.00
   93    0.12    0.00    0.00    0.00    0.00    0.00   45.41    0.23    0.86    0.05    0.00    0.00    0.00    0.00    0.00     0.01    0.00    0.00    0.00
   94    0.00    0.00    0.00    0.00    0.00    0.00   45.37    0.22    0.68    0.01    0.00    0.00    0.00    0.00    0.00     0.00    0.00    0.00    0.00
   95    0.00    0.15    0.00    0.00    0.00    0.00   45.65    0.20    0.72    0.13    0.23    0.00    0.00    0.00    0.00     0.04    0.00    0.01    0.00
   96    0.00    0.07    0.00    0.00    0.00    0.00   45.77    0.30    1.35    0.08    0.00    0.00    0.00    0.00    0.00     0.02    0.00    0.00    0.00
   97    4.34    0.00    0.00    0.00    0.00    0.00   45.76    0.06    0.15    0.01    0.00    0.00    0.00    0.00    0.00     0.00    0.00    0.00    0.00
   98    2.08    0.00    0.00    0.00    0.00    0.00   45.69    0.15    0.48    0.00    0.00    0.00    0.00    0.00    0.00     0.00    0.00    0.00    0.00
   99    0.00    0.00    0.00    0.00    0.00    0.00   45.62    0.17    0.66    0.00    0.00    0.00    0.00    0.00    0.00     0.00    0.00    0.00    0.00
  100    0.00    0.00    0.00    0.00    0.00    0.00   45.49    0.25    1.09    0.00    0.00    0.00    0.00    0.00    0.00     0.00    0.00    0.00    0.00
  101    0.00    0.00    0.00    0.00    0.00    0.00   45.39    0.22    0.88    0.00    0.00    0.00    0.00    0.00    0.00     0.00    0.00    0.00    0.00
  102    0.44    0.00    0.00    0.00    0.00    0.00   45.34    0.14    0.55    0.00    0.00    0.00    0.00    0.00    0.00     0.00    0.00    0.00    0.00
  103    1.67    0.00    0.00    0.00    0.00    0.00   45.33    0.05    0.09    0.00    0.00    0.00    0.00    0.00    0.00     0.00    0.00    0.00    0.00
  104    2.37    0.00    0.00    0.00    0.00    0.00   45.33    0.05    0.07    0.00    0.00    0.00    0.00    0.00    0.00     0.00    0.00    0.00    0.00
  105    3.22    0.00    0.00    0.00    0.00    0.00   45.32    0.06    0.15    0.00    0.00    0.00    0.00    0.00    0.00     0.00    0.00    0.00    0.00
  106    2.02    0.00    0.00    0.00    0.00    0.00   45.28    0.15    0.71    0.00    0.00    0.00    0.00    0.00    0.00     0.00    0.00    0.00    0.00
  107    3.39    0.00    0.00    0.00    0.00    0.00   45.23    0.15    0.62    0.00    0.00    0.00    0.00    0.00    0.00     0.00    0.00    0.00    0.00
  108    2.59    0.00    0.00    0.00    0.00    0.00   45.22    0.08    0.21    0.00    0.00    0.00    0.00    0.00    0.00     0.00    0.00    0.00    0.00
  109    4.35    0.00    0.00    0.00    0.00    0.00   45.17    0.10    0.43    0.00    0.00    0.00    0.00    0.00    0.00     0.00    0.00    0.00    0.00
  110    0.00    0.01    0.00    0.00    0.00    0.00   45.14    0.31    1.57    0.01    0.01    0.00    0.00    0.00    0.00     0.00    0.00    0.00    0.00
  111    0.00    0.00    0.00    0.00    0.00    0.00   45.05    0.22    1.12    0.00    0.00    0.00    0.00    0.00    0.00     0.00    0.00    0.00    0.00
  112    0.00    0.00    0.00    0.00    0.00    0.00   44.97    0.20    0.96    0.00    0.00    0.00    0.00    0.00    0.00     0.00    0.00    0.00    0.00
  113    0.00    0.00    0.00    0.00    0.00    0.00   44.93    0.15    0.57    0.00    0.00    0.00    0.00    0.00    0.00     0.00    0.00    0.00    0.00
  114    0.30    0.00    0.00    0.00    0.00    0.00   44.89    0.15    0.79    0.00    0.00    0.00    0.00    0.00    0.00     0.00    0.00    0.00    0.00
  115   11.44    0.00    0.00    0.00    0.00    0.00   44.89    0.07    0.09    0.00    0.00    0.00    0.00    0.00    0.00     0.00    0.00    0.00    0.00
  116    2.03    0.00    0.00    0.00    0.00    0.00   44.82    0.14    0.45    0.00    0.00    0.00    0.00    0.00    0.00     0.00    0.00    0.00    0.00
  117    0.00    0.00    0.00    0.00    0.00    0.00   44.70    0.31    1.76    0.00    0.00    0.00    0.00    0.00    0.00     0.00    0.00    0.00    0.00
  118    1.84    0.00    0.00    0.00    0.00    0.00   44.70    0.18    0.58    0.00    0.00    0.00    0.00    0.00    0.00     0.00    0.00    0.00    0.00
  119    4.65    0.00    0.00    0.00    0.00    0.00   44.69    0.09    0.23    0.00    0.00    0.00    0.00    0.00    0.00     0.00    0.00    0.00    0.00
  120    7.87    0.00    0.00    0.00    0.00    0.00   44.69    0.06    0.13    0.00    0.00    0.00    0.00    0.00    0.00     0.00    0.00    0.00    0.00
    4   54.74    1.27    0.00    0.00    0.00    0.00   44.69    5.48   21.04    1.30    1.19    0.01    0.00    0.00    0.00     0.54    0.00    0.07    0.00
  121    1.73    0.00    0.00    0.00    0.00    0.00   44.58    0.20    0.98    0.00    0.00    0.00    0.00    0.00    0.00     0.00    0.00    0.00    0.00
  122    0.66    0.00    0.00    0.00    0.00    0.00   44.48    0.24    0.89    0.00    0.00    0.00    0.00    0.00    0.00     0.00    0.00    0.00    0.00
  123    0.33    0.00    0.00    0.00    0.00    0.00   44.39    0.24    1.10    0.00    0.00    0.00    0.00    0.00    0.00     0.00    0.00    0.00    0.00
  124    5.14    0.00    0.00    0.00    0.00    0.00   44.39    0.08    0.12    0.00    0.00    0.00    0.00    0.00    0.00     0.00    0.00    0.00    0.00
  125    0.00    0.05    0.00    0.00    0.00    0.00   44.62    0.32    1.57    0.04    0.06    0.00    0.00    0.00    0.00     0.01    0.00    0.00    0.00
  126    0.00    0.89    0.00    0.00    0.00    0.00   45.37    0.81    2.54    0.76    0.76    0.00    0.00    0.00    0.00     0.21    0.00    0.03    0.00
  127    0.00    0.75    0.00    0.00    0.00    0.00   46.00    0.36    1.58    0.74    0.05    0.00    0.00    0.00    0.00     0.18    0.00    0.02    0.00
  128    9.63    0.00    0.00    0.00    0.00    0.00   46.00    0.10    0.17    0.11    0.00    0.00    0.00    0.00    0.00     0.02    0.00    0.00    0.00
  129    9.25    0.07    0.00    0.00    0.00    0.00   46.19    0.19    0.69    0.09    0.13    0.00    0.00    0.00    0.00     0.01    0.00    0.00    0.00
  130    4.03    0.94    0.00    0.00    0.00    0.00   46.96    0.23    0.93    0.81    1.39    0.00    0.00    0.00    0.00     0.21    0.00    0.03    0.00
  131    0.92    0.01    0.00    0.00    0.00    0.00   47.03    0.28    0.87    0.13    0.00    0.00    0.00    0.00    0.00     0.03    0.00    0.00    0.00
  132    1.14    0.00    0.00    0.00    0.00    0.00   46.87    0.29    0.82    0.03    0.00    0.00    0.00    0.00    0.00     0.00    0.00    0.00    0.00
  133    0.80    0.00    0.00    0.00    0.00    0.00   46.74    0.29    0.98    0.01    0.00    0.00    0.00    0.00    0.00     0.00    0.00    0.00    0.00
  134    0.00    0.12    0.00    0.00    0.00    0.00   46.99    0.57    2.33    0.10    0.11    0.00    0.00    0.00    0.00     0.02    0.00    0.00    0.00
  135    3.69    0.10    0.00    0.00    0.00    0.00   47.17    0.16    0.27    0.10    0.00    0.00    0.00    0.00    0.00     0.02    0.00    0.00    0.00
  136   10.08    2.80    0.01    0.00    0.01    0.00   47.73    0.11    0.16    2.36    1.72    0.00    0.00    0.00    0.00     0.58    0.00    0.08    0.00
  137    0.80    3.25    0.04    0.00    0.47    0.00   49.36    1.32    2.52    3.13    1.77    0.01    0.00    0.01    0.00     0.82    0.00    0.10    0.00
  138    0.00    5.47    0.10    0.00    0.81    0.00   52.05    1.40    2.63    5.19    7.99    0.01    0.00    0.02    0.00     2.12    0.00    0.26    0.00
  139    2.16   10.70    0.25    0.00    0.87    0.00   56.12    0.37    0.62   10.07   18.39    0.01    0.00    0.01    0.00     4.32    0.00    0.53    0.00
  140    0.20    4.28    0.27    0.01    0.74    0.00   59.27    0.98    1.82    5.29    0.20    0.01    0.00    0.01    0.00     1.57    0.00    0.19    0.00
  141    2.04    6.66    0.36    0.01    2.32    0.00   61.21    0.55    1.02    6.83   11.21    0.01    0.00    0.04    0.00     1.97    0.00    0.24    0.00
  142    1.12   11.15    0.48    0.02    2.45    0.00   64.13    1.26    2.37   11.01   26.28    0.02    0.00    0.04    0.00     3.77    0.00    0.46    0.00
  143    4.20    2.79    0.51    0.03    1.79    0.00   65.54    0.44    0.81    4.32    2.15    0.01    0.00    0.03    0.00     0.82    0.00    0.10    0.00
  144    2.15    0.59    0.47    0.04    1.08    0.00   65.96    0.81    1.56    1.72    0.10    0.00    0.00    0.02    0.00     0.25    0.00    0.03    0.00
  145    0.00    0.45    0.43    0.05    0.77    0.00   66.36    1.19    2.19    1.14    0.87    0.00    0.00    0.01    0.00     0.11    0.00    0.01    0.00
  146    0.00    0.98    0.41    0.06    0.67    0.00   67.10    1.29    2.96    1.42    0.82    0.00    0.00    0.01    0.00     0.16    0.00    0.02    0.00
  147    0.28    0.10    0.35    0.07    0.39    0.00   66.75    0.93    2.17    0.68    0.12    0.00    0.00    0.01    0.00     0.03    0.00    0.00    0.00
  148    3.29    0.00    0.28    0.09    0.19    0.00   66.23    0.59    1.59    0.41    0.00    0.00    0.00    0.00    0.00     0.01    0.00    0.00    0.00
  149    1.30    0.00    0.22    0.10    0.07    0.00   65.94    0.45    1.28    0.33    0.00    0.00    0.00    0.00    0.00     0.00    0.00    0.00    0.00
  150    0.00    0.00    0.17    0.11    0.03    0.00   65.55    0.53    1.47    0.28    0.00    0.00    0.00    0.00    0.00     0.00    0.00    0.00    0.00
  151    1.89    0.00    0.13    0.11    0.01    0.00   65.20    0.49    1.72    0.25    0.00    0.00    0.00    0.00    0.00     0.00    0.00    0.00    0.00
    5   66.83   52.15    4.47    0.69   12.67    0.00   65.20   17.07   42.72   57.35   74.12    0.11    0.03    0.21    0.00    17.23    0.01    2.12    0.00
  152    0.00    0.72    0.14    0.12    0.34    0.00   65.48    1.02    2.42    0.87    0.85    0.00    0.00    0.01    0.00     0.07    0.00    0.01    0.00
  153    0.00    0.03    0.13    0.13    0.31    0.00   65.10    0.88    2.18    0.37    0.00    0.00    0.00    0.01    0.00     0.01    0.00    0.00    0.00
  154    0.00    1.99    0.14    0.14    0.53    0.00   66.16    1.18    2.65    1.96    2.02    0.00    0.00    0.01    0.00     0.28    0.00    0.03    0.00
  155    0.00    3.63    0.14    0.15    0.40    0.00   67.98    0.87    2.26    3.60    4.78    0.01    0.00    0.01    0.00     0.63    0.00    0.08    0.00
  156    0.00    3.13    0.18    0.15    0.34    0.00   70.26    1.54    3.64    3.48    2.08    0.01    0.00    0.01    0.00     0.61    0.00    0.07    0.00
  157    0.68    1.26    0.19    0.16    0.31    0.00   71.21    0.60    1.68    1.91    0.28    0.00    0.00    0.01    0.00     0.21    0.00    0.03    0.00
  158    0.00    0.64    0.19    0.17    0.28    0.00   71.58    1.14    2.89    1.16    0.59    0.00    0.00    0.01    0.00     0.10    0.00    0.01    0.00
  159   16.27    0.45    0.19    0.17    0.27    0.00   72.20    0.50    1.37    0.88    0.03    0.00    0.00    0.01    0.00     0.06    0.00    0.01    0.00
  160    0.00    2.61    0.22    0.18    0.48    0.00   73.99    1.39    3.05    2.66    3.82    0.01    0.00    0.01    0.00     0.37    0.00    0.04    0.00
  161    1.07    3.92    0.22    0.18    0.40    0.00   75.81    1.03    2.59    4.01    3.79    0.01    0.00    0.01    0.00     0.69    0.00    0.08    0.00
  162    0.33    7.61    0.21    0.19    0.22    0.00   78.42    1.26    3.22    7.46   20.03    0.01    0.00    0.00    0.00     1.56    0.00    0.19    0.00
  163    0.00    7.15    0.19    0.19    0.07    0.00   80.75    1.76    4.08    7.46    3.89    0.01    0.00    0.00    0.00     1.36    0.00    0.16    0.00
  164    6.91    5.72    0.25    0.20    0.74    0.00   83.09    1.10    2.10    6.20    5.56    0.02    0.00    0.02    0.02     0.83    0.00    0.10    0.00
  165    3.96    7.30    0.25    0.20    0.27    0.00   84.01    1.53    2.93    7.38   14.32    0.05    0.00    0.01    0.02     0.89    0.00    0.11    0.00
  166    2.33    0.19    0.20    0.21    0.08    0.00   83.32    1.57    3.21    1.79    0.01    0.00    0.00    0.00    0.09     0.15    0.00    0.02    0.00
  167    0.00    2.74    0.30    0.21    3.65    0.00   80.66    1.49    3.86    3.30    9.21    0.03    0.00    0.21    0.09     0.30    0.00    0.04    0.00
  168    0.00    2.80    0.46    0.22    5.51    0.00   75.52    1.36    4.39    3.55    4.18    0.07    0.01    0.22    0.13     0.34    0.00    0.04    0.00
  169    0.00    2.09    0.37    0.24    1.98    0.00   74.18    1.49    4.64    2.79    4.12    0.17    0.01    0.05    0.19     0.25    0.00    0.03    0.00
  170    8.34    3.05    0.38    0.26    1.38    0.00   75.16    0.73    1.87    3.46    2.27    0.27    0.01    0.05    0.14     0.24    0.00    0.03    0.00
  171    0.60    2.80    0.31    0.27    0.52    0.00   75.03    1.97    4.63    3.47   10.94    0.02    0.01    0.02    0.20     0.26    0.00    0.03    0.00
  172    0.00    3.57    0.38    0.29    1.08    0.00   74.02    1.52    4.14    4.20    9.19    0.06    0.01    0.08    0.35     0.40    0.00    0.05    0.00
  173    0.00    3.60    0.28    0.30    0.30    0.00   73.94    1.63    5.58    4.17    8.59    0.04    0.01    0.02    0.50     0.37    0.00    0.05    0.00
  174    1.26    4.26    0.23    0.32    0.32    0.00   74.18    1.31    5.37    4.73   12.50    0.02    0.01    0.06    0.61     0.37    0.00    0.05    0.00
  175   15.92    0.87    0.24    0.33    0.28    0.00   75.61    0.69    1.50    1.80    2.19    0.08    0.01    0.01    0.48     0.10    0.00    0.01    0.00
  176    4.53    2.25    0.35    0.34    1.20    0.00   78.10    1.27    2.72    2.93    5.31    0.04    0.01    0.07    0.41     0.22    0.00    0.03    0.00
  177    0.00    1.26    0.37    0.35    0.79    0.00   78.71    1.79    4.29    2.12    1.15    0.01    0.01    0.05    0.65     0.12    0.00    0.01    0.00
  178    0.96    0.19    0.31    0.36    0.23    0.00   78.30    1.22    4.29    1.01    0.10    0.00    0.01    0.02    0.61     0.02    0.00    0.00    0.00
  179    0.00    2.46    0.26    0.37    1.63    0.00   76.44    1.92    3.58    2.92   10.25    0.00    0.01    0.26    0.68     0.17    0.00    0.02    0.00
  180    0.00    0.05    0.21    0.39    0.98    0.00   74.81    1.29    4.49    0.84    0.00    0.00    0.01    0.12    0.89     0.02    0.00    0.00    0.00
  181    5.59    0.08    0.19    0.40    0.59    0.00   74.92    0.53    1.22    0.70    0.08    0.00    0.01    0.06    0.56     0.00    0.00    0.00    0.00
    6   68.76   78.39    7.45    7.20   25.49    0.00   74.92   37.60   96.86   93.18  142.13    0.94    0.15    1.39    6.61    11.00    0.01    1.33    0.00
  182    0.00    3.75    0.18    0.41    0.37    0.00   75.40    1.98    4.90    3.99   19.05    0.00    0.01    0.03    0.18     0.24    0.00    0.03    0.00
  183    0.00    3.89    0.16    0.42    1.30    0.00   73.77    1.59    5.14    4.40    6.09    0.00    0.00    0.05    0.96     0.26    0.00    0.03    0.00
  184    0.00    1.73    0.18    0.43    0.57    0.00   73.07    1.30    5.08    2.54    3.99    0.00    0.00    0.02    0.88     0.12    0.00    0.01    0.00
  185    1.16    1.33    0.18    0.44    0.25    0.00   73.63    1.34    4.37    2.02    3.35    0.00    0.00    0.01    0.15     0.08    0.00    0.01    0.00
  186    0.00    1.33    0.15    0.44    0.81    0.00   71.95    1.75    4.94    1.93    4.50    0.00    0.00    0.12    0.08     0.09    0.00    0.01    0.00
  187    0.00    2.00    0.18    0.45    0.95    0.00   69.87    1.66    6.46    2.56    8.24    0.00    0.00    0.13    0.13     0.15    0.00    0.02    0.00
  188    0.00    0.48    0.15    0.46    0.70    0.00   68.39    1.27    5.16    1.25    0.00    0.00    0.00    0.06    0.22     0.04    0.00    0.01    0.00
  189    0.00    0.72    0.24    0.46    1.49    0.00   65.96    1.29    4.78    1.44    4.54    0.00    0.01    0.05    0.24     0.06    0.00    0.01    0.00
  190    2.49    0.09    0.19    0.47    0.05    0.00   66.82    0.80    3.32    0.84    0.33    0.00    0.00    0.00    0.19     0.00    0.00    0.00    0.00
  191    0.92    1.32    0.17    0.47    1.85    0.00   64.92    1.41    4.58    1.86    8.28    0.00    0.00    0.22    0.20     0.09    0.00    0.01    0.00
  192    0.00    1.22    0.14    0.48    1.01    0.00   62.94    1.59    5.87    1.82    1.38    0.00    0.00    0.10    0.22     0.09    0.00    0.01    0.00
  193    0.60    1.53    0.21    0.48    1.18    0.00   61.45    1.39    5.95    2.19    9.49    0.00    0.00    0.10    0.25     0.11    0.00    0.01    0.00
  194    0.00    0.97    0.25    0.49    0.44    0.00   60.12    1.40    7.02    1.79    0.19    0.00    0.00    0.03    0.28     0.08    0.00    0.01    0.00
  195    2.74    0.20    0.20    0.49    0.13    0.00   60.35    1.04    4.17    0.98    1.05    0.00    0.00    0.00    0.28     0.01    0.00    0.00    0.00
  196    0.00    1.10    0.19    0.50    0.17    0.00   59.91    1.70    5.32    1.73    6.71    0.00    0.00    0.02    0.20     0.08    0.00    0.01    0.00
  197    0.00    1.08    0.17    0.50    0.07    0.00   59.41    1.35    6.26    1.75    2.07    0.00    0.00    0.01    0.30     0.08    0.00    0.01    0.00
  198    0.25    0.45    0.15    0.50    0.05    0.00   58.70    1.42    6.34    1.17    1.35    0.00    0.00    0.00    0.31     0.03    0.00    0.00    0.00
  199    0.20    0.02    0.14    0.50    0.00    0.00   57.69    1.29    6.03    0.72    0.00    0.00    0.00    0.00    0.25     0.00    0.00    0.00    0.00
  200    0.00    0.00    0.12    0.50    0.05    0.00   56.81    1.10    6.19    0.64    0.00    0.00    0.00    0.00    0.28     0.00    0.00    0.00    0.00
  201    0.00    0.00    0.10    0.50    0.65    0.00   55.15    1.26    5.85    0.61    0.00    0.00    0.00    0.04    0.21     0.00    0.00    0.00    0.00
  202    0.00    0.00    0.09    0.50    1.47    0.00   52.74    1.14    6.30    0.61    0.00    0.00    0.00    0.13    0.14     0.00    0.00    0.00    0.00
  203    0.00    0.00    0.08    0.50    0.45    0.00   51.55    0.97    6.06    0.59    0.00    0.00    0.00    0.01    0.39     0.00    0.00    0.00    0.00
  204    0.00    0.00    0.07    0.50    0.45    0.00   50.06    1.28    4.97    0.58    0.00    0.00    0.00    0.00    0.24     0.00    0.00    0.00    0.00
  205    7.23    0.06    0.10    0.50    0.01    0.00   51.63    0.17    0.27    0.66    0.41    0.00    0.00    0.00    0.01     0.00    0.00    0.00    0.00
  206    0.00    0.04    0.11    0.50    0.02    0.00   52.50    1.35    3.46    0.66    0.07    0.00    0.00    0.00    0.17     0.00    0.00    0.00    0.00
  207    0.00    0.00    0.08    0.50    0.01    0.00   52.15    0.67    3.05    0.59    0.00    0.00    0.00    0.00    0.01     0.00    0.00    0.00    0.00
  208    0.77    0.07    0.10    0.49    0.00    0.00   53.13    1.06    3.84    0.67    0.49    0.00    0.00    0.00    0.02     0.00    0.00    0.00    0.00
  209    0.00    0.20    0.09    0.49    0.00    0.00   53.19    1.26    6.30    0.79    0.86    0.00    0.00    0.00    0.02     0.00    0.00    0.00    0.00
  210    0.00    0.01    0.07    0.49    0.00    0.00   52.33    1.21    6.05    0.60    0.00    0.00    0.00    0.00    0.34     0.00    0.00    0.00    0.00
  211    1.30    0.08    0.07    0.49    0.00    0.00   52.68    0.82    4.96    0.64    0.46    0.00    0.00    0.00    0.22     0.00    0.00    0.00    0.00
  212    0.00    0.00    0.06    0.48    0.06    0.00   51.98    0.96    6.80    0.56    0.00    0.00    0.00    0.00    0.11     0.00    0.00    0.00    0.00
    7   17.64   23.64    4.36   14.82   14.60    0.00   51.98   38.81  159.79   43.19   82.90    0.01    0.09    1.12    7.50     1.63    0.00    0.21    0.00
  213    0.00    0.00    0.09    0.48    2.11    0.00   48.52    1.40    4.92    0.59    0.00    0.00    0.00    0.02    0.07     0.00    0.00    0.00    0.00
  214    0.00    0.00    0.10    0.48    1.16    0.00   46.45    1.08    6.12    0.59    0.00    0.00    0.00    0.01    0.06     0.00    0.00    0.00    0.00
  215    0.00    0.00    0.08    0.47    0.49    0.00   45.06    1.15    6.04    0.57    0.00    0.00    0.00    0.00    0.15     0.00    0.00    0.00    0.00
  216    0.00    0.00    0.07    0.47    0.25    0.00   44.03    1.04    6.70    0.56    0.00    0.00    0.00    0.01    1.43     0.00    0.00    0.00    0.00
  217    0.00    0.00    0.06    0.47    0.09    0.00   43.36    0.84    6.49    0.54    0.00    0.00    0.00    0.00    0.60     0.00    0.00    0.00    0.00
  218    0.00    0.00    0.05    0.46    0.12    0.00   42.31    1.19    5.39    0.53    0.00    0.00    0.00    0.02    0.34     0.00    0.00    0.00    0.00
  219    0.00    0.00    0.04    0.45    0.09    0.00   41.50    0.98    6.35    0.51    0.00    0.00    0.00    0.01    0.38     0.00    0.00    0.00    0.00
  220    0.00    0.00    0.03    0.45    0.00    0.00   40.93    0.83    6.27    0.50    0.00    0.00    0.00    0.00    0.38     0.00    0.00    0.00    0.00
  221    0.00    0.00    0.03    0.44    0.00    0.00   39.83    1.34    4.42    0.49    0.00    0.00    0.00    0.00    0.18     0.00    0.00    0.00    0.00
  222    0.00    0.00    0.02    0.44    0.00    0.00   39.26    0.80    4.45    0.48    0.00    0.00    0.00    0.00    0.16     0.00    0.00    0.00    0.00
  223    0.00    0.00    0.02    0.44    0.00    0.00   38.63    0.86    4.73    0.48    0.00    0.00    0.00    0.00    0.06     0.00    0.00    0.00    0.00
  224    0.00    0.00    0.02    0.44    0.00    0.00   38.22    0.63    4.92    0.47    0.00    0.00    0.00    0.00    0.03     0.00    0.00    0.00    0.00
  225    0.00    0.00    0.01    0.43    0.00    0.00   37.85    0.59    5.00    0.46    0.00    0.00    0.00    0.00    0.02     0.00    0.00    0.00    0.00
  226    0.00    0.00    0.01    0.41    0.00    0.00   37.56    0.51    5.44    0.44    0.00    0.00    0.00    0.00    0.02     0.00    0.00    0.00    0.00
  227    1.78    0.15    0.04    0.41    0.01    0.00   38.50    0.73    5.42    0.61    1.47    0.00    0.00    0.00    0.02     0.00    0.00    0.00    0.00
  228    0.00    0.00    0.03    0.40    0.00    0.00   37.96    0.78    5.89    0.46    0.00    0.00    0.00    0.00    0.07     0.00    0.00    0.00    0.00
  229    0.00    0.00    0.03    0.40    0.00    0.00   37.55    0.66    4.98    0.44    0.00    0.00    0.00    0.00    0.02     0.00    0.00    0.00    0.00
  230    0.00    0.00    0.02    0.39    0.00    0.00   37.18    0.61    7.15    0.43    0.00    0.00    0.00    0.00    0.03     0.00    0.00    0.00    0.00
  231    0.00    0.00    0.02    0.38    0.00    0.00   36.74    0.67    5.53    0.42    0.00    0.00    0.00    0.00    0.02     0.00    0.00    0.00    0.00
  232    0.00    0.00    0.01    0.38    0.00    0.00   36.33    0.63    5.04    0.41    0.00    0.00    0.00    0.00    0.02     0.00    0.00    0.00    0.00
  233    6.65    0.18    0.07    0.37    0.03    0.00   38.09    0.39    1.95    0.62    1.31    0.00    0.00    0.00    0.00     0.00    0.00    0.00    0.00
  234    1.55    0.04    0.08    0.37    0.03    0.00   38.80    0.65    2.69    0.51    0.04    0.00    0.00    0.00    0.02     0.00    0.00    0.00    0.00
  235    3.12    0.27    0.09    0.36    0.01    0.00   40.40    0.89    3.04    0.71    1.84    0.00    0.00    0.00    0.02     0.01    0.00    0.00    0.00
  236    3.31    1.29    0.11    0.36    0.04    0.00   42.63    1.22    4.40    1.62    6.53    0.00    0.00    0.00    0.01     0.04    0.00    0.01    0.00
  237    6.30    0.75    0.15    0.35    0.04    0.00   45.00    0.85    2.79    1.24    1.81    0.00    0.00    0.00    0.01     0.02    0.00    0.00    0.00
  238   14.16    2.07    0.30    0.35    0.12    0.00   51.04    0.89    1.39    2.51    1.72    0.00    0.00    0.00    0.01     0.14    0.00    0.02    0.00
  239    0.00    1.14    0.29    0.34    0.39    0.00   51.72    1.80    4.36    2.00    7.26    0.00    0.00    0.03    0.01     0.06    0.00    0.01    0.00
  240    0.00    0.29    0.24    0.34    0.22    0.00   51.26    1.29    5.87    1.01    0.19    0.00    0.00    0.02    0.09     0.01    0.00    0.00    0.00
  241    0.00    0.31    0.19    0.33    0.12    0.00   50.68    0.99    5.30    0.86    0.80    0.00    0.00    0.01    0.09     0.00    0.00    0.00    0.00
  242    0.00    0.29    0.16    0.31    0.16    0.00   49.78    1.24    5.39    0.78    0.19    0.00    0.00    0.01    0.12     0.00    0.00    0.00    0.00
  243    0.00    0.35    0.13    0.31    0.10    0.00   49.02    1.18    6.70    0.79    0.95    0.00    0.00    0.01    0.09     0.00    0.00    0.00    0.00
    8   36.85    7.11    2.58   12.49    5.57    0.00   49.02   28.69  155.11   22.61   24.11    0.01    0.02    0.17    4.51     0.30    0.00    0.04    0.00
  244    3.85    0.05    0.12    0.30    0.09    0.00   49.33    0.41    2.16    0.52    0.00    0.00    0.00    0.00    0.01     0.00    0.00    0.00    0.00
  245    0.76    0.23    0.12    0.30    0.07    0.00   50.60    0.74    3.01    0.65    1.55    0.00    0.00    0.00    0.02     0.00    0.00    0.00    0.00
  246    0.00    0.08    0.11    0.30    0.03    0.00   50.85    0.76    3.61    0.52    0.46    0.00    0.00    0.00    0.01     0.00    0.00    0.00    0.00
  247    0.61    0.00    0.08    0.29    0.01    0.00   50.38    0.59    3.38    0.40    0.00    0.00    0.00    0.00    0.01     0.00    0.00    0.00    0.00
  248    0.02    0.16    0.07    0.29    0.00    0.00   50.07    0.81    3.42    0.52    0.57    0.00    0.00    0.00    0.01     0.01    0.00    0.00    0.00
  249    0.00    0.06    0.06    0.28    0.00    0.00   49.75    0.57    5.02    0.42    0.01    0.00    0.00    0.00    0.01     0.00    0.00    0.00    0.00
  250    0.00    0.00    0.05    0.28    0.00    0.00   49.30    0.66    3.26    0.35    0.01    0.00    0.00    0.00    0.00     0.00    0.00    0.00    0.00
  251    0.00    0.02    0.04    0.27    0.00    0.00   48.99    0.52    3.70    0.35    0.04    0.00    0.00    0.00    0.01     0.00    0.00    0.00    0.00
  252    0.00    0.00    0.03    0.26    0.00    0.00   48.36    0.81    4.66    0.31    0.00    0.00    0.00    0.00    0.01     0.00    0.00    0.00    0.00
  253    0.00    0.00    0.03    0.26    0.00    0.00   47.90    0.64    3.98    0.30    0.00    0.00    0.00    0.00    0.01     0.00    0.00    0.00    0.00
  254    0.00    0.00    0.02    0.25    0.00    0.00   47.54    0.53    3.70    0.29    0.00    0.00    0.00    0.00    0.01     0.00    0.00    0.00    0.00
  255    2.60    0.29    0.09    0.24    0.16    0.00   48.94    0.69    3.83    0.59    0.10    0.00    0.00    0.00    0.01     0.01    0.00    0.00    0.00
  256    0.09    0.00    0.06    0.23    0.05    0.00   48.62    0.42    3.12    0.34    0.00    0.00    0.00    0.00    0.00     0.00    0.00    0.00    0.00
  257    0.00    0.00    0.05    0.22    0.02    0.00   48.25    0.58    3.37    0.29    0.01    0.00    0.00    0.00    0.00     0.00    0.00    0.00    0.00
  258    0.00    0.00    0.04    0.21    0.00    0.00   47.71    0.70    3.22    0.27    0.00    0.00    0.00    0.00    0.02     0.00    0.00    0.00    0.00
  259    0.00    0.00    0.03    0.21    0.00    0.00   47.38    0.49    3.87    0.25    0.00    0.00    0.00    0.00    0.03     0.00    0.00    0.00    0.00
  260    0.00    0.00    0.02    0.19    0.00    0.00   47.06    0.48    3.62    0.23    0.00    0.00    0.00    0.00    0.05     0.00    0.00    0.00    0.00
  261    8.11    0.00    0.02    0.19    0.00    0.00   47.22    0.25    0.53    0.23    0.00    0.00    0.00    0.00    0.00     0.00    0.00    0.00    0.00
  262    0.00    0.14    0.08    0.18    0.10    0.00   49.42    1.07    2.28    0.41    0.34    0.00    0.00    0.00    0.04     0.01    0.00    0.00    0.00
  263    0.00    0.05    0.08    0.17    0.03    0.00   49.75    0.65    2.45    0.33    0.07    0.00    0.00    0.00    0.02     0.00    0.00    0.00    0.00
  264    0.00    0.18    0.07    0.17    0.01    0.00   50.20    0.78    3.02    0.42    0.82    0.00    0.00    0.00    0.01     0.00    0.00    0.00    0.00
  265    0.00    0.54    0.06    0.16    0.00    0.00   50.02    1.08    3.23    0.73    1.95    0.00    0.00    0.00    0.01     0.02    0.00    0.00    0.00
  266    0.00    0.09    0.05    0.15    0.00    0.00   49.38    0.99    5.17    0.33    0.00    0.00    0.00    0.00    0.01     0.00    0.00    0.00    0.00
  267    0.00    0.00    0.04    0.14    0.00    0.00   48.94    0.62    5.09    0.20    0.00    0.00    0.00    0.00    0.01     0.00    0.00    0.00    0.00
  268    0.00    0.00    0.03    0.14    0.00    0.00   48.66    0.44    3.70    0.18    0.00    0.00    0.00    0.00    0.01     0.00    0.00    0.00    0.00
  269    0.00    0.00    0.02    0.14    0.00    0.00   48.34    0.47    3.25    0.18    0.00    0.00    0.00    0.00    0.01     0.00    0.00    0.00    0.00
  270    0.91    0.02    0.03    0.13    0.01    0.00   48.42    0.48    2.88    0.20    0.18    0.00    0.00    0.00    0.00     0.00    0.00    0.00    0.00
  271    0.00    0.04    0.03    0.13    0.03    0.00   48.23    0.65    4.13    0.21    0.23    0.00    0.00    0.00    0.01     0.00    0.00    0.00    0.00
  272    0.00    0.00    0.02    0.12    0.04    0.00   47.80    0.60    5.43    0.16    0.00    0.00    0.00    0.00    0.00     0.00    0.00    0.00    0.00
  273    0.00    0.00    0.02    0.11    0.01    0.00   47.39    0.58    4.26    0.15    0.00    0.00    0.00    0.00    0.00     0.00    0.00    0.00    0.00
    9   16.95    1.94    1.60    6.31    0.68    0.00   47.39   19.04  106.34   10.35    6.32    0.00    0.01    0.01    0.36     0.07    0.00    0.01    0.00
  274    0.00    0.00    0.02    0.11    0.00    0.00   47.24    0.25    2.41    0.14    0.00    0.00    0.00    0.00    0.00     0.00    0.00    0.00    0.00
  275    0.00    0.00    0.01    0.11    0.00    0.00   47.05    0.30    2.46    0.14    0.00    0.00    0.00    0.00    0.00     0.00    0.00    0.00    0.00
  276    1.43    0.00    0.02    0.11    0.00    0.00   47.22    0.28    1.40    0.14    0.03    0.00    0.00    0.00    0.00     0.00    0.00    0.00    0.00
  277    0.00    0.00    0.03    0.11    0.00    0.00   47.44    0.45    2.88    0.15    0.00    0.00    0.00    0.00    0.00     0.00    0.00    0.00    0.00
  278    0.00    0.00    0.02    0.10    0.00    0.00   47.26    0.34    2.67    0.14    0.00    0.00    0.00    0.00    0.00     0.00    0.00    0.00    0.00
  279    0.00    0.00    0.01    0.10    0.00    0.00   47.16    0.20    1.47    0.13    0.00    0.00    0.00    0.00    0.00     0.00    0.00    0.00    0.00
  280    0.00    0.00    0.01    0.10    0.00    0.00   47.06    0.18    1.45    0.12    0.00    0.00    0.00    0.00    0.00     0.00    0.00    0.00    0.00
  281    0.00    0.00    0.01    0.10    0.00    0.00   47.00    0.13    1.00    0.12    0.00    0.00    0.00    0.00    0.00     0.00    0.00    0.00    0.00
  282    0.62    0.00    0.01    0.09    0.00    0.00   46.93    0.15    1.19    0.11    0.00    0.00    0.00    0.00    0.00     0.00    0.00    0.00    0.00
  283    0.00    0.00    0.01    0.09    0.00    0.00   46.87    0.14    1.11    0.11    0.00    0.00    0.00    0.00    0.00     0.00    0.00    0.00    0.00
  284    2.17    0.00    0.01    0.09    0.00    0.00   46.73    0.25    2.39    0.11    0.00    0.00    0.00    0.00    0.00     0.00    0.00    0.00    0.00
  285    0.00    0.38    0.01    0.08    0.01    0.00   47.46    0.59    2.64    0.42    0.30    0.01    0.00    0.00    0.00     0.04    0.00    0.01    0.00
  286    1.50    0.99    0.01    0.08    0.01    0.00   47.67    0.69    2.74    0.94    0.81    0.01    0.00    0.00    0.00     0.11    0.00    0.01    0.00
  287    0.14    0.41    0.02    0.07    0.01    0.00   47.63    0.60    2.54    0.63    2.67    0.00    0.00    0.00    0.00     0.03    0.00    0.00    0.00
  288    1.65    0.18    0.05    0.07    0.00    0.00   48.73    0.57    1.76    0.37    0.06    0.00    0.00    0.00    0.00     0.01    0.00    0.00    0.00
  289    0.00    0.00    0.04    0.06    0.00    0.00   48.46    0.38    2.09    0.14    0.00    0.00    0.00    0.00    0.00     0.00    0.00    0.00    0.00
  290    0.56    0.00    0.03    0.06    0.00    0.00   48.30    0.22    1.01    0.11    0.00    0.00    0.00    0.00    0.00     0.00    0.00    0.00    0.00
  291   13.36    0.00    0.02    0.06    0.00    0.00   48.31    0.05    0.07    0.10    0.00    0.00    0.00    0.00    0.00     0.00    0.00    0.00    0.00
  292    0.04    0.00    0.03    0.06    0.03    0.00   48.67    0.20    0.56    0.11    0.02    0.00    0.00    0.00    0.00     0.00    0.00    0.00    0.00
  293    2.15    0.00    0.02    0.06    0.01    0.00   48.65    0.08    0.48    0.10    0.00    0.00    0.00    0.00    0.00     0.00    0.00    0.00    0.00
  294    5.31    0.00    0.02    0.06    0.00    0.00   48.65    0.03    0.05    0.09    0.00    0.00    0.00    0.00    0.00     0.00    0.00    0.00    0.00
  295   10.88    0.00    0.01    0.06    0.00    0.00   48.64    0.05    0.22    0.08    0.00    0.00    0.00    0.00    0.00     0.00    0.00    0.00    0.00
  296    0.00    0.00    0.01    0.05    0.00    0.00   48.59    0.13    0.97    0.08    0.00    0.00    0.00    0.00    0.00     0.00    0.00    0.00    0.00
  297    0.00    0.00    0.01    0.05    0.01    0.00   48.57    0.21    0.90    0.08    0.00    0.00    0.00    0.00    0.00     0.00    0.00    0.00    0.00
  298    1.23    0.39    0.03    0.05    0.15    0.00   49.29    0.49    1.37    0.43    0.58    0.00    0.00    0.00    0.00     0.03    0.00    0.00    0.00
  299    0.00    0.17    0.04    0.05    0.13    0.00   49.79    0.24    0.69    0.29    0.00    0.00    0.00    0.00    0.00     0.02    0.00    0.00    0.00
  300    0.00    0.11    0.04    0.05    0.12    0.00   50.20    0.20    0.44    0.22    0.06    0.00    0.00    0.00    0.00     0.01    0.00    0.00    0.00
  301    0.09    0.03    0.04    0.05    0.09    0.00   50.38    0.12    0.32    0.14    0.00    0.00    0.00    0.00    0.00     0.00    0.00    0.00    0.00
  302    0.00    0.05    0.04    0.04    0.09    0.00   50.60    0.27    0.86    0.15    0.01    0.00    0.00    0.00    0.00     0.00    0.00    0.00    0.00
  303    1.54    0.00    0.03    0.05    0.03    0.00   50.56    0.11    0.28    0.10    0.00    0.00    0.00    0.00    0.00     0.00    0.00    0.00    0.00
  304    1.75    0.00    0.03    0.05    0.01    0.00   50.54    0.07    0.21    0.09    0.00    0.00    0.00    0.00    0.00     0.00    0.00    0.00    0.00
   10   44.42    2.73    0.68    2.28    0.71    0.00   50.54    7.99   40.65    6.07    4.55    0.03    0.01    0.02    0.00     0.27    0.00    0.03    0.00
  305    0.79    0.00    0.02    0.04    0.00    0.00   50.54    0.04    0.05    0.08    0.00    0.00    0.00    0.00    0.00     0.00    0.00    0.00    0.00
  306    5.25    0.00    0.02    0.04    0.00    0.00   50.52    0.04    0.23    0.07    0.00    0.00    0.00    0.00    0.00     0.00    0.00    0.00    0.00
  307    0.88    0.00    0.01    0.04    0.00    0.00   50.52    0.02    0.03    0.06    0.00    0.00    0.00    0.00    0.00     0.00    0.00    0.00    0.00
  308    0.28    0.00    0.01    0.04    0.00    0.00   50.50    0.08    0.54    0.06    0.00    0.00    0.00    0.00    0.00     0.00    0.00    0.00    0.00
  309    0.42    0.00    0.01    0.04    0.00    0.00   50.47    0.07    0.26    0.06    0.00    0.00    0.00    0.00    0.00     0.00    0.00    0.00    0.00
  310    1.90    0.00    0.01    0.04    0.00    0.00   50.42    0.09    0.44    0.05    0.00    0.00    0.00    0.00    0.00     0.00    0.00    0.00    0.00
  311    0.94    0.00    0.01    0.04    0.00    0.00   50.33    0.13    0.77    0.05    0.00    0.00    0.00    0.00    0.00     0.00    0.00    0.00    0.00
  312    0.00    0.00    0.00    0.03    0.00    0.00   50.28    0.09    0.46    0.05    0.00    0.00    0.00    0.00    0.00     0.00    0.00    0.00    0.00
  313    0.00    0.00    0.00    0.03    0.00    0.00   50.24    0.09    0.44    0.05    0.00    0.00    0.00    0.00    0.00     0.00    0.00    0.00    0.00
  314    0.27    0.00    0.00    0.03    0.00    0.00   50.23    0.04    0.21    0.05    0.00    0.00    0.00    0.00    0.00     0.00    0.00    0.00    0.00
  315    1.89    0.00    0.00    0.03    0.00    0.00   50.23    0.02    0.02    0.05    0.00    0.00    0.00    0.00    0.00     0.00    0.00    0.00    0.00
  316    0.29    0.00    0.00    0.03    0.00    0.00   50.22    0.05    0.27    0.05    0.00    0.00    0.00    0.00    0.00     0.00    0.00    0.00    0.00
  317    0.00    0.00    0.00    0.03    0.00    0.00   50.19    0.08    0.44    0.04    0.00    0.00    0.00    0.00    0.00     0.00    0.00    0.00    0.00
  318    2.11    0.00    0.00    0.03    0.00    0.00   50.17    0.02    0.13    0.04    0.00    0.00    0.00    0.00    0.00     0.00    0.00    0.00    0.00
  319    4.26    0.00    0.00    0.03    0.00    0.00   50.17    0.03    0.10    0.04    0.00    0.00    0.00    0.00    0.00     0.00    0.00    0.00    0.00
  320    5.83    0.00    0.00    0.03    0.00    0.00   50.17    0.02    0.02    0.04    0.00    0.00    0.00    0.00    0.00     0.00    0.00    0.00    0.00
  321    2.51    0.00    0.00    0.03    0.00    0.00   50.17    0.02    0.03    0.04    0.00    0.00    0.00    0.00    0.00     0.00    0.00    0.00    0.00
  322    0.65    0.00    0.00    0.03    0.00    0.00   50.15    0.05    0.19    0.04    0.00    0.00    0.00    0.00    0.00     0.00    0.00    0.00    0.00
  323    0.00    0.00    0.00    0.03    0.00    0.00   50.13    0.05    0.27    0.04    0.00    0.00    0.00    0.00    0.00     0.00    0.00    0.00    0.00
  324    0.00    0.00    0.00    0.03    0.00    0.00   50.08    0.09    0.61    0.04    0.00    0.00    0.00    0.00    0.00     0.00    0.00    0.00    0.00
  325    0.00    0.00    0.00    0.03    0.00    0.00   50.08    0.04    0.06    0.04    0.00    0.00    0.00    0.00    0.00     0.00    0.00    0.00    0.00
  326    0.00    0.00    0.00    0.03    0.00    0.00   50.08    0.04    0.07    0.04    0.00    0.00    0.00    0.00    0.00     0.00    0.00    0.00    0.00
  327    0.00    0.00    0.00    0.03    0.00    0.00   50.08    0.04    0.08    0.04    0.00    0.00    0.00    0.00    0.00     0.00    0.00    0.00    0.00
  328    0.00    0.00    0.00    0.03    0.00    0.00   50.04    0.08    0.48    0.04    0.00    0.00    0.00    0.00    0.00     0.00    0.00    0.00    0.00
  329    0.00    0.00    0.00    0.03    0.00    0.00   50.01    0.07    0.38    0.04    0.00    0.00    0.00    0.00    0.00     0.00    0.00    0.00    0.00
  330    0.00    0.00    0.00    0.03    0.00    0.00   49.99    0.06    0.28    0.04    0.00    0.00    0.00    0.00    0.00     0.00    0.00    0.00    0.00
  331    0.00    0.00    0.00    0.03    0.00    0.00   49.99    0.05    0.07    0.03    0.00    0.00    0.00    0.00    0.00     0.00    0.00    0.00    0.00
  332    0.00    0.00    0.00    0.02    0.00    0.00   49.98    0.04    0.13    0.03    0.00    0.00    0.00    0.00    0.00     0.00    0.00    0.00    0.00
  333    0.00    0.00    0.00    0.02    0.00    0.00   49.97    0.06    0.23    0.03    0.00    0.00    0.00    0.00    0.00     0.00    0.00    0.00    0.00
  334    0.00    0.00    0.00    0.02    0.00    0.00   49.96    0.05    0.17    0.03    0.00    0.00    0.00    0.00    0.00     0.00    0.00    0.00    0.00
   11   28.25    0.00    0.10    0.96    0.00    0.00   49.96    1.66    7.48    1.36    0.00    0.00    0.00    0.00    0.00     0.00    0.00    0.00    0.00
  335    0.00    0.00    0.00    0.02    0.00    0.00   49.96    0.03    0.11    0.03    0.00    0.00    0.00    0.00    0.00     0.00    0.00    0.00    0.00
  336    0.74    0.00    0.00    0.02    0.00    0.00   49.96    0.02    0.03    0.03    0.00    0.00    0.00    0.00    0.00     0.00    0.00    0.00    0.00
  337    0.00    0.00    0.00    0.02    0.00    0.00   49.93    0.06    0.43    0.03    0.00    0.00    0.00    0.00    0.00     0.00    0.00    0.00    0.00
  338    0.00    0.00    0.00    0.02    0.00    0.00   49.89    0.06    0.47    0.03    0.00    0.00    0.00    0.00    0.00     0.00    0.00    0.00    0.00
  339    0.00    0.00    0.00    0.02    0.00    0.00   49.89    0.03    0.07    0.03    0.00    0.00    0.00    0.00    0.00     0.00    0.00    0.00    0.00
  340    0.54    0.00    0.00    0.02    0.00    0.00   49.89    0.02    0.03    0.03    0.00    0.00    0.00    0.00    0.00     0.00    0.00    0.00    0.00
  341    0.18    0.00    0.00    0.02    0.00    0.00   49.89    0.03    0.05    0.03    0.00    0.00    0.00    0.00    0.00     0.00    0.00    0.00    0.00
  342    1.87    0.00    0.00    0.02    0.00    0.00   49.89    0.01    0.02    0.03    0.00    0.00    0.00    0.00    0.00     0.00    0.00    0.00    0.00
  343    4.08    0.00    0.00    0.02    0.00    0.00   49.88    0.01    0.05    0.03    0.00    0.00    0.00    0.00    0.00     0.00    0.00    0.00    0.00
  344    0.74    0.00    0.00    0.02    0.00    0.00   49.88    0.02    0.04    0.03    0.00    0.00    0.00    0.00    0.00     0.00    0.00    0.00    0.00
  345    0.00    0.00    0.00    0.02    0.00    0.00   49.85    0.06    0.44    0.03    0.00    0.00    0.00    0.00    0.00     0.00    0.00    0.00    0.00
  346    0.00    0.00    0.00    0.02    0.00    0.00   49.85    0.03    0.05    0.03    0.00    0.00    0.00    0.00    0.00     0.00    0.00    0.00    0.00
  347    0.00    0.00    0.00    0.02    0.00    0.00   49.85    0.03    0.05    0.02    0.00    0.00    0.00    0.00    0.00     0.00    0.00    0.00    0.00
  348    0.00    0.00    0.00    0.02    0.00    0.00   49.84    0.04    0.15    0.02    0.00    0.00    0.00    0.00    0.00     0.00    0.00    0.00    0.00
  349    0.00    0.00    0.00    0.02    0.00    0.00   49.83    0.05    0.20    0.02    0.00    0.00    0.00    0.00    0.00     0.00    0.00    0.00    0.00
  350    0.00    0.00    0.00    0.02    0.00    0.00   49.82    0.06    0.22    0.02    0.00    0.00    0.00    0.00    0.00     0.00    0.00    0.00    0.00
  351    0.40    0.00    0.00    0.01    0.00    0.00   49.82    0.02    0.03    0.02    0.00    0.00    0.00    0.00    0.00     0.00    0.00    0.00    0.00
  352    0.83    0.00    0.00    0.01    0.00    0.00   49.82    0.02    0.02    0.02    0.00    0.00    0.00    0.00    0.00     0.00    0.00    0.00    0.00
  353    1.12    0.00    0.00    0.01    0.00    0.00   49.82    0.02    0.04    0.02    0.00    0.00    0.00    0.00    0.00     0.00    0.00    0.00    0.00
  354    0.09    0.00    0.00    0.01    0.00    0.00   49.81    0.04    0.25    0.02    0.00    0.00    0.00    0.00    0.00     0.00    0.00    0.00    0.00
  355    0.93    0.00    0.00    0.01    0.00    0.00   49.81    0.01    0.02    0.02    0.00    0.00    0.00    0.00    0.00     0.00    0.00    0.00    0.00
  356    0.00    0.00    0.00    0.01    0.00    0.00   49.78    0.06    0.43    0.02    0.00    0.00    0.00    0.00    0.00     0.00    0.00    0.00    0.00
  357    0.23    0.00    0.00    0.01    0.00    0.00   49.78    0.03    0.10    0.02    0.00    0.00    0.00    0.00    0.00     0.00    0.00    0.00    0.00
  358    0.40    0.00    0.00    0.01    0.00    0.00   49.78    0.03    0.09    0.02    0.00    0.00    0.00    0.00    0.00     0.00    0.00    0.00    0.00
  359    0.05    0.00    0.00    0.01    0.00    0.00   49.76    0.07    0.32    0.02    0.00    0.00    0.00    0.00    0.00     0.00    0.00    0.00    0.00
  360    0.00    0.00    0.00    0.01    0.00    0.00   49.64    0.25    1.44    0.01    0.00    0.00    0.00    0.00    0.00     0.00    0.00    0.00    0.00
  361    0.14    0.00    0.00    0.01    0.00    0.00   49.64    0.04    0.05    0.01    0.00    0.00    0.00    0.00    0.00     0.00    0.00    0.00    0.00
  362    0.38    0.00    0.00    0.01    0.00    0.00   49.64    0.02    0.06    0.01    0.00    0.00    0.00    0.00    0.00     0.00    0.00    0.00    0.00
  363    0.03    0.00    0.00    0.01    0.00    0.00   49.61    0.07    0.54    0.01    0.00    0.00    0.00    0.00    0.00     0.00    0.00    0.00    0.00
  364    0.94    0.00    0.00    0.01    0.00    0.00   49.61    0.02    0.05    0.01    0.00    0.00    0.00    0.00    0.00     0.00    0.00    0.00    0.00
  365    0.00    0.00    0.00    0.01    0.00    0.00   49.61    0.04    0.06    0.01    0.00    0.00    0.00    0.00    0.00     0.00    0.00    0.00    0.00
   12   13.69    0.00    0.00    0.45    0.00    0.00   49.61    1.33    5.92    0.69    0.00    0.00    0.00    0.00    0.00     0.00    0.00    0.00    0.00

 2015  386.09  167.24   21.24   45.23   59.71    0.00   49.61  163.20  658.49  236.32  335.32    1.11    0.30    2.93   18.98    31.04    0.02    3.81    0.00
1
    SWAT Sep 7    VER 2018/Rev 670                                                  

    General Input/Output section (file.cio):                                        
    5/13/2020 12:00:00 AM ARCGIS-SWAT interface AV                                  
                                                                                    
Annual Summary for Watershed in year    7 of simulation

UNIT                                    PERCO    TILE                           WATER     SED     NO3     NO3     NO3     NO3        N       P       P
TIME     PREC    SURQ    LATQ     GWQ    LATE       Q     SW       ET     PET   YIELD   YIELD    SURQ    LATQ    PERC    CROP  ORGANIC SOLUBLE ORGANIC TILENO3
         (mm)    (mm)    (mm)    (mm)    (mm)    (mm)    (mm)    (mm)    (mm)    (mm)   (t/ha)  ------------------(kg nutrient/ha)-------------------- (kg/ha)
    1    0.00    0.00    0.00    0.01    0.00    0.00   49.61    0.03    0.04    0.01    0.00    0.00    0.00    0.00    0.00     0.00    0.00    0.00    0.00
    2    0.00    0.00    0.00    0.01    0.00    0.00   49.61    0.03    0.04    0.01    0.00    0.00    0.00    0.00    0.00     0.00    0.00    0.00    0.00
    3    1.02    0.00    0.00    0.01    0.00    0.00   49.61    0.01    0.02    0.01    0.00    0.00    0.00    0.00    0.00     0.00    0.00    0.00    0.00
    4    0.03    0.00    0.00    0.01    0.00    0.00   49.61    0.02    0.05    0.01    0.00    0.00    0.00    0.00    0.00     0.00    0.00    0.00    0.00
    5    0.12    0.00    0.00    0.01    0.00    0.00   49.61    0.03    0.25    0.01    0.00    0.00    0.00    0.00    0.00     0.00    0.00    0.00    0.00
    6    0.64    0.00    0.00    0.01    0.00    0.00   49.61    0.01    0.03    0.01    0.00    0.00    0.00    0.00    0.00     0.00    0.00    0.00    0.00
    7    0.70    0.00    0.00    0.01    0.00    0.00   49.61    0.01    0.02    0.01    0.00    0.00    0.00    0.00    0.00     0.00    0.00    0.00    0.00
    8    0.00    0.00    0.00    0.01    0.00    0.00   49.60    0.04    0.34    0.01    0.00    0.00    0.00    0.00    0.00     0.00    0.00    0.00    0.00
    9    0.17    0.00    0.00    0.01    0.00    0.00   49.60    0.03    0.09    0.01    0.00    0.00    0.00    0.00    0.00     0.00    0.00    0.00    0.00
   10    0.06    0.00    0.00    0.01    0.00    0.00   49.60    0.04    0.09    0.01    0.00    0.00    0.00    0.00    0.00     0.00    0.00    0.00    0.00
   11    0.05    0.00    0.00    0.01    0.00    0.00   49.59    0.04    0.24    0.01    0.00    0.00    0.00    0.00    0.00     0.00    0.00    0.00    0.00
   12    0.06    0.00    0.00    0.01    0.00    0.00   49.58    0.04    0.31    0.01    0.00    0.00    0.00    0.00    0.00     0.00    0.00    0.00    0.00
   13    0.00    0.00    0.00    0.01    0.00    0.00   49.58    0.03    0.04    0.01    0.00    0.00    0.00    0.00    0.00     0.00    0.00    0.00    0.00
   14    0.00    0.00    0.00    0.01    0.00    0.00   49.58    0.03    0.05    0.01    0.00    0.00    0.00    0.00    0.00     0.00    0.00    0.00    0.00
   15    0.54    0.00    0.00    0.01    0.00    0.00   49.58    0.02    0.02    0.01    0.00    0.00    0.00    0.00    0.00     0.00    0.00    0.00    0.00
   16    0.63    0.00    0.00    0.01    0.00    0.00   49.58    0.01    0.02    0.01    0.00    0.00    0.00    0.00    0.00     0.00    0.00    0.00    0.00
   17    0.00    0.00    0.00    0.01    0.00    0.00   49.56    0.04    0.42    0.01    0.00    0.00    0.00    0.00    0.00     0.00    0.00    0.00    0.00
   18    0.02    0.00    0.00    0.01    0.00    0.00   49.56    0.03    0.22    0.01    0.00    0.00    0.00    0.00    0.00     0.00    0.00    0.00    0.00
   19    0.15    0.00    0.00    0.00    0.00    0.00   49.55    0.02    0.10    0.01    0.00    0.00    0.00    0.00    0.00     0.00    0.00    0.00    0.00
   20    0.00    0.00    0.00    0.00    0.00    0.00   49.55    0.02    0.07    0.01    0.00    0.00    0.00    0.00    0.00     0.00    0.00    0.00    0.00
   21    0.00    0.00    0.00    0.00    0.00    0.00   49.55    0.02    0.16    0.01    0.00    0.00    0.00    0.00    0.00     0.00    0.00    0.00    0.00
   22    0.00    0.00    0.00    0.00    0.00    0.00   49.54    0.03    0.19    0.01    0.00    0.00    0.00    0.00    0.00     0.00    0.00    0.00    0.00
   23    0.00    0.00    0.00    0.00    0.00    0.00   49.54    0.02    0.08    0.01    0.00    0.00    0.00    0.00    0.00     0.00    0.00    0.00    0.00
   24    0.00    0.00    0.00    0.00    0.00    0.00   49.54    0.02    0.17    0.01    0.00    0.00    0.00    0.00    0.00     0.00    0.00    0.00    0.00
   25    0.00    0.00    0.00    0.00    0.00    0.00   49.54    0.02    0.06    0.01    0.00    0.00    0.00    0.00    0.00     0.00    0.00    0.00    0.00
   26    0.48    0.00    0.00    0.00    0.00    0.00   49.54    0.01    0.02    0.01    0.00    0.00    0.00    0.00    0.00     0.00    0.00    0.00    0.00
   27    1.29    0.00    0.00    0.00    0.00    0.00   49.53    0.02    0.13    0.01    0.00    0.00    0.00    0.00    0.00     0.00    0.00    0.00    0.00
   28    2.02    0.00    0.00    0.00    0.00    0.00   49.53    0.02    0.02    0.01    0.00    0.00    0.00    0.00    0.00     0.00    0.00    0.00    0.00
   29    0.76    0.00    0.00    0.00    0.00    0.00   49.52    0.03    0.21    0.01    0.00    0.00    0.00    0.00    0.00     0.00    0.00    0.00    0.00
   30    0.16    0.00    0.00    0.00    0.00    0.00   49.52    0.02    0.12    0.01    0.00    0.00    0.00    0.00    0.00     0.00    0.00    0.00    0.00
   31    0.16    0.00    0.00    0.00    0.00    0.00   49.50    0.05    0.49    0.01    0.00    0.00    0.00    0.00    0.00     0.00    0.00    0.00    0.00
    1    9.04    0.00    0.00    0.16    0.00    0.00   49.50    0.79    4.10    0.34    0.00    0.00    0.00    0.00    0.00     0.00    0.00    0.00    0.00
   32    0.00    0.00    0.00    0.00    0.00    0.00   49.47    0.10    0.89    0.01    0.00    0.00    0.00    0.00    0.00     0.00    0.00    0.00    0.00
   33    0.00    0.00    0.00    0.00    0.00    0.00   49.46    0.10    0.72    0.01    0.00    0.00    0.00    0.00    0.00     0.00    0.00    0.00    0.00
   34    0.00    0.00    0.00    0.00    0.00    0.00   49.46    0.07    0.11    0.01    0.00    0.00    0.00    0.00    0.00     0.00    0.00    0.00    0.00
   35    0.00    0.00    0.00    0.00    0.00    0.00   49.46    0.06    0.10    0.01    0.00    0.00    0.00    0.00    0.00     0.00    0.00    0.00    0.00
   36    0.00    0.00    0.00    0.00    0.00    0.00   49.43    0.10    0.78    0.01    0.00    0.00    0.00    0.00    0.00     0.00    0.00    0.00    0.00
   37    0.00    0.00    0.00    0.00    0.00    0.00   49.43    0.06    0.34    0.01    0.00    0.00    0.00    0.00    0.00     0.00    0.00    0.00    0.00
   38    0.90    0.00    0.00    0.00    0.00    0.00   49.43    0.03    0.05    0.01    0.00    0.00    0.00    0.00    0.00     0.00    0.00    0.00    0.00
   39    0.00    0.00    0.00    0.00    0.00    0.00   49.42    0.05    0.13    0.01    0.00    0.00    0.00    0.00    0.00     0.00    0.00    0.00    0.00
   40    0.00    0.00    0.00    0.00    0.00    0.00   49.42    0.04    0.08    0.01    0.00    0.00    0.00    0.00    0.00     0.00    0.00    0.00    0.00
   41    0.01    0.00    0.00    0.00    0.00    0.00   49.42    0.04    0.21    0.01    0.00    0.00    0.00    0.00    0.00     0.00    0.00    0.00    0.00
   42    0.00    0.00    0.00    0.00    0.00    0.00   49.42    0.05    0.26    0.01    0.00    0.00    0.00    0.00    0.00     0.00    0.00    0.00    0.00
   43    0.00    0.00    0.00    0.00    0.00    0.00   49.42    0.05    0.12    0.01    0.00    0.00    0.00    0.00    0.00     0.00    0.00    0.00    0.00
   44    0.11    0.00    0.00    0.00    0.00    0.00   49.40    0.08    0.55    0.01    0.00    0.00    0.00    0.00    0.00     0.00    0.00    0.00    0.00
   45    0.07    0.00    0.00    0.00    0.00    0.00   49.38    0.06    0.47    0.01    0.00    0.00    0.00    0.00    0.00     0.00    0.00    0.00    0.00
   46    1.76    0.00    0.00    0.00    0.00    0.00   49.38    0.03    0.07    0.01    0.00    0.00    0.00    0.00    0.00     0.00    0.00    0.00    0.00
   47    0.00    0.00    0.00    0.00    0.00    0.00   49.37    0.06    0.45    0.00    0.00    0.00    0.00    0.00    0.00     0.00    0.00    0.00    0.00
   48    0.00    0.00    0.00    0.00    0.00    0.00   49.37    0.04    0.18    0.00    0.00    0.00    0.00    0.00    0.00     0.00    0.00    0.00    0.00
   49    0.00    0.00    0.00    0.00    0.00    0.00   49.37    0.04    0.05    0.00    0.00    0.00    0.00    0.00    0.00     0.00    0.00    0.00    0.00
   50    0.00    0.00    0.00    0.00    0.00    0.00   49.37    0.04    0.17    0.00    0.00    0.00    0.00    0.00    0.00     0.00    0.00    0.00    0.00
   51    0.00    0.00    0.00    0.00    0.00    0.00   49.37    0.05    0.08    0.00    0.00    0.00    0.00    0.00    0.00     0.00    0.00    0.00    0.00
   52    0.00    0.00    0.00    0.00    0.00    0.00   49.37    0.06    0.19    0.00    0.00    0.00    0.00    0.00    0.00     0.00    0.00    0.00    0.00
   53    0.18    0.00    0.00    0.00    0.00    0.00   49.37    0.07    0.30    0.00    0.00    0.00    0.00    0.00    0.00     0.00    0.00    0.00    0.00
   54    1.08    0.00    0.00    0.00    0.00    0.00   49.37    0.04    0.07    0.00    0.00    0.00    0.00    0.00    0.00     0.00    0.00    0.00    0.00
   55    0.00    0.00    0.00    0.00    0.00    0.00   49.37    0.06    0.12    0.00    0.00    0.00    0.00    0.00    0.00     0.00    0.00    0.00    0.00
   56    0.00    0.00    0.00    0.00    0.00    0.00   49.33    0.12    1.18    0.00    0.00    0.00    0.00    0.00    0.00     0.00    0.00    0.00    0.00
   57    0.00    0.00    0.00    0.00    0.00    0.00   49.29    0.11    1.05    0.00    0.00    0.00    0.00    0.00    0.00     0.00    0.00    0.00    0.00
   58    0.00    0.00    0.00    0.00    0.00    0.00   49.27    0.06    0.49    0.00    0.00    0.00    0.00    0.00    0.00     0.00    0.00    0.00    0.00
   59    0.00    0.00    0.00    0.00    0.00    0.00   49.27    0.06    0.17    0.00    0.00    0.00    0.00    0.00    0.00     0.00    0.00    0.00    0.00
   60    0.00    0.00    0.00    0.00    0.00    0.00   49.25    0.10    0.76    0.00    0.00    0.00    0.00    0.00    0.00     0.00    0.00    0.00    0.00
    2    4.11    0.00    0.00    0.02    0.00    0.00   49.25    1.84   10.17    0.15    0.00    0.00    0.00    0.00    0.00     0.00    0.00    0.00    0.00
   61    0.03    0.10    0.00    0.00    0.00    0.00   49.48    0.26    1.20    0.08    0.21    0.00    0.00    0.00    0.00     0.07    0.00    0.01    0.00
   62    0.00    0.05    0.00    0.00    0.00    0.00   49.63    0.28    0.97    0.06    0.03    0.00    0.00    0.00    0.00     0.04    0.00    0.01    0.00
   63    0.00    0.00    0.00    0.00    0.00    0.00   49.60    0.12    0.65    0.01    0.00    0.00    0.00    0.00    0.00     0.01    0.00    0.00    0.00
   64    0.00    0.00    0.00    0.00    0.00    0.00   49.57    0.11    0.60    0.01    0.00    0.00    0.00    0.00    0.00     0.00    0.00    0.00    0.00
   65    0.00    0.00    0.00    0.00    0.00    0.00   49.55    0.14    0.58    0.00    0.00    0.00    0.00    0.00    0.00     0.00    0.00    0.00    0.00
   66    0.00    0.00    0.00    0.00    0.00    0.00   49.47    0.19    1.27    0.00    0.00    0.00    0.00    0.00    0.00     0.00    0.00    0.00    0.00
   67    0.00    0.00    0.00    0.00    0.00    0.00   49.46    0.19    0.91    0.00    0.00    0.00    0.00    0.00    0.00     0.00    0.00    0.00    0.00
   68    0.00    0.00    0.00    0.00    0.00    0.00   49.40    0.16    1.04    0.00    0.00    0.00    0.00    0.00    0.00     0.00    0.00    0.00    0.00
   69    0.09    0.00    0.00    0.00    0.00    0.00   49.38    0.08    0.33    0.00    0.00    0.00    0.00    0.00    0.00     0.00    0.00    0.00    0.00
   70    0.00    0.00    0.00    0.00    0.00    0.00   49.35    0.11    0.67    0.00    0.00    0.00    0.00    0.00    0.00     0.00    0.00    0.00    0.00
   71    1.77    0.00    0.00    0.00    0.00    0.00   49.35    0.03    0.04    0.00    0.00    0.00    0.00    0.00    0.00     0.00    0.00    0.00    0.00
   72    0.69    0.00    0.00    0.00    0.00    0.00   49.34    0.05    0.30    0.00    0.00    0.00    0.00    0.00    0.00     0.00    0.00    0.00    0.00
   73    1.92    0.00    0.00    0.00    0.00    0.00   49.34    0.03    0.05    0.00    0.00    0.00    0.00    0.00    0.00     0.00    0.00    0.00    0.00
   74    0.44    0.00    0.00    0.00    0.00    0.00   49.33    0.05    0.31    0.00    0.00    0.00    0.00    0.00    0.00     0.00    0.00    0.00    0.00
   75    1.87    0.00    0.00    0.00    0.00    0.00   49.33    0.04    0.05    0.00    0.00    0.00    0.00    0.00    0.00     0.00    0.00    0.00    0.00
   76    1.02    0.00    0.00    0.00    0.00    0.00   49.33    0.04    0.06    0.00    0.00    0.00    0.00    0.00    0.00     0.00    0.00    0.00    0.00
   77    1.93    0.00    0.00    0.00    0.00    0.00   49.33    0.03    0.04    0.00    0.00    0.00    0.00    0.00    0.00     0.00    0.00    0.00    0.00
   78    1.29    0.00    0.00    0.00    0.00    0.00   49.33    0.06    0.08    0.00    0.00    0.00    0.00    0.00    0.00     0.00    0.00    0.00    0.00
   79    0.00    0.00    0.00    0.00    0.00    0.00   49.29    0.24    1.49    0.00    0.00    0.00    0.00    0.00    0.00     0.00    0.00    0.00    0.00
   80    0.00    0.00    0.00    0.00    0.00    0.00   49.26    0.13    0.65    0.00    0.00    0.00    0.00    0.00    0.00     0.00    0.00    0.00    0.00
   81    0.00    0.00    0.00    0.00    0.00    0.00   49.22    0.17    0.97    0.00    0.00    0.00    0.00    0.00    0.00     0.00    0.00    0.00    0.00
[...]
     80  12   I-Bh-2c-   .279E+02   91.00   70.00    8.09    0.00    0.00    0.00    0.20  454.37  260.10   90.97   81.52 2914.41    0.18   37.73    0.00    0.00  260.10
     81  12   I-K-U-2c   .620E+02   91.00   60.00    8.46    0.00    0.00    0.00    0.20  454.37  260.84   90.70   81.07 2339.29    0.11   21.24    0.00    0.00  260.84
     82  13   I-K-U-2c   .156E+03   79.00   60.00    0.82    0.00    0.00    0.00    0.20  275.03  107.11    0.20  136.28   54.22    0.03   21.37    0.00    0.00  107.11
     83  13   I-K-U-2c   .209E+03   79.00   60.00    4.57    0.00    0.00    0.00    0.20  275.03  106.51    7.84  134.31  377.67    0.17   21.44    0.00    0.00  106.51
     84  13   I-K-U-2c   .767E+02   91.00   60.00    3.42    0.00    0.00    0.00    0.20  275.03  132.83   33.23   87.30  545.55    0.14   21.26    0.00    0.00  132.83
     85  13   I-K-U-2c   .863E+02   91.00   60.00    0.82    0.00    0.00    0.00    0.20  275.03  132.91   33.44   88.57   83.99    0.03   21.53    0.00    0.00  132.91
     86  13   I-K-U-2c   .813E+02   91.00   60.00    0.72    0.00    0.00    0.00    0.20  275.03  132.87   32.16   89.89   64.14    0.03   21.37    0.00    0.00  132.87
     87  13   I-K-U-2c   .160E+03   91.00   60.00    7.83    0.00    0.00    0.00    0.20  275.03  132.57   28.57   89.65  996.85    0.23   21.25    0.00    0.00  132.57
     88  14   I-K-U-2c   .456E+01   91.00   60.00    0.46    0.00    0.00    0.00    0.20  263.11  123.19   26.27   87.50   24.34    0.03   20.39    0.00    0.00  123.19
     89  14   I-K-U-2c   .114E+01   91.00   60.00    3.50    0.00    0.00    0.00    0.20  263.11  123.05   24.52   87.98  422.91    0.09   21.43    0.00    0.00  123.05
     90  14   I-K-U-2c   .468E+01   91.00   60.00    0.54    0.00    0.00    0.00    0.20  263.11  123.25   26.28   87.02   29.21    0.03   20.75    0.00    0.00  123.25
     91  15   I-K-U-2c   .100E+03   79.00   60.00    0.78    0.00    0.00    0.00    0.20  174.99   39.20    0.14  129.21   15.07    0.01   14.86    0.00    0.00   39.20
     92  15   I-K-U-2c   .145E+03   79.00   60.00    4.89    0.00    0.00    0.00    0.20  174.99   38.33    5.80  124.32  119.19    0.07   21.64    0.00    0.00   38.33
     93  15   I-Y-2c-3   .437E+02   84.00   70.00    0.80    0.00    0.00    0.00    0.20  174.99   49.89    0.05  118.11   31.39    0.02    8.72    0.00    0.00   49.89
     94  15   I-Y-2c-3   .688E+02   84.00   70.00    6.47    0.00    0.00    0.00    0.20  174.99   49.74    2.71  115.67  358.92    0.07   11.00    0.00    0.00   49.74
     95  15   I-K-U-2c   .652E+02   91.00   60.00    0.75    0.00    0.00    0.00    0.20  174.99   66.44    2.60   75.50   30.14    0.04   19.01    0.00    0.00   66.44
     96  15   I-K-U-2c   .389E+02   91.00   60.00    4.25    0.00    0.00    0.00    0.20  174.99   66.38    6.46   72.19  349.63    0.18   21.44    0.00    0.00   66.38
     97  15   I-Y-2c-3   .278E+02   94.00   70.00    8.36    0.00    0.00    0.00    0.20  174.99   72.23    4.83   70.46 1048.14    0.23   10.84    0.00    0.00   72.23
     98  15   I-Y-2c-3   .176E+02   94.00   70.00    0.84    0.00    0.00    0.00    0.20  174.99   72.29    0.08   71.92   62.25    0.04   10.21    0.00    0.00   72.29
     99  15   GLACIER-   .457E+02   94.00   15.24   10.62    0.00    0.00    0.00    0.20  174.99   80.83   11.28   77.14    0.25    1.56    0.39    0.00    0.00   80.84
    100  15   I-K-U-2c   .417E+02   91.00   60.00    0.33    0.00    0.00    0.00    0.20  174.99   66.45    2.82   75.39   12.68    0.04   16.37    0.00    0.00   66.45
    101  15   I-K-U-2c   .371E+02   91.00   60.00    7.47    0.00    0.00    0.00    0.20  174.99   66.85    8.48   72.63  634.07    0.23   21.25    0.00    0.00   66.85
    102  15   I-Y-2c-3   .153E+02   94.00   70.00    0.31    0.00    0.00    0.00    0.20  174.99   72.30    0.02   71.75   16.77    0.04    8.45    0.00    0.00   72.30
    103  15   I-Y-2c-3   .339E+02   94.00   70.00   10.99    0.00    0.00    0.00    0.20  174.99   72.25    5.83   70.06 1324.47    0.27   10.84    0.00    0.00   72.25
    104  15   GLACIER-   .751E+02   92.00   15.24    6.95    0.00    0.00    0.00    0.20  174.99    0.00    0.00 1003.73    0.00    0.00    0.00    0.00    0.00    0.00
    105  15   GLACIER-   .182E+02   92.00   15.24    1.42    0.00    0.00    0.00    0.20  174.99    0.00    0.00 1003.73    0.00    0.00    0.00    0.00    0.00    0.00
    106  16   I-Bh-2c-   .156E+02   79.00   70.00    1.20    0.00    0.00    0.00    0.20  185.25   45.12    0.21  126.28   39.42    0.04   34.14    0.00    0.00   45.12
    107  16   I-Bh-2c-   .888E+02   79.00   70.00    6.22    0.00    0.00    0.00    0.20  185.25   44.19    7.11  122.57  220.43    0.16   39.62    0.00    0.00   44.19
    108  16   I-Bh-2c-   .122E+02   91.00   70.00    1.05    0.00    0.00    0.00    0.20  185.25   76.06    0.21   87.89   72.08    0.11   37.51    0.00    0.00   76.06
    109  16   I-Bh-2c-   .382E+02   91.00   70.00    5.10    0.00    0.00    0.00    0.20  185.25   75.93    6.73   83.93  511.03    0.27   37.87    0.00    0.00   75.93
    110  16   I-Bh-2c-   .870E+02   91.00   70.00   10.62    0.00    0.00    0.00    0.20  185.25   75.91   10.30   82.09  805.35    0.38   37.73    0.00    0.00   75.91
    111  16   I-Y-2c-3   .166E+02   94.00   70.00   11.80    0.00    0.00    0.00    0.20  185.25   81.30    5.11   75.06 1918.55    0.36   10.84    0.00    0.00   81.30
    112  16   I-Bh-2c-   .219E+02   92.00   70.00   11.24    0.00    0.00    0.00    0.20  185.25    0.00    0.00  971.73    0.00    0.00    0.00    0.00    0.00    0.00
    113  16   I-Y-2c-3   .190E+02   92.00   70.00   11.82    0.00    0.00    0.00    0.20  185.25    0.00    0.00  971.73    0.00    0.00    0.00    0.00    0.00    0.00
    114  17   I-Bh-2c-   .378E+02   79.00   70.00    9.20    0.00    0.00    0.00    0.20  233.17   67.84   14.95  129.41  598.04    0.21   37.73    0.00    0.00   67.84
    115  17   I-K-U-2c   .357E+02   79.00   60.00    0.82    0.00    0.00    0.00    0.20  233.17   72.77    0.22  131.86   32.64    0.02   19.80    0.00    0.00   72.77
    116  17   I-K-U-2c   .135E+03   79.00   60.00    5.61    0.00    0.00    0.00    0.20  233.17   73.03    8.71  129.02  238.83    0.15   21.65    0.00    0.00   73.03
    117  17   I-K-U-2c   .933E+02   91.00   60.00    3.62    0.00    0.00    0.00    0.20  233.17   98.13   31.73   78.27  346.18    0.16   21.39    0.00    0.00   98.13
    118  17   I-K-U-2c   .613E+02   91.00   60.00    0.85    0.00    0.00    0.00    0.20  233.17   98.35   30.62   80.88   53.95    0.03   20.58    0.00    0.00   98.35
    119  17   I-K-U-2c   .102E+03   91.00   60.00    4.91    0.00    0.00    0.00    0.20  233.17   98.13   33.64   76.14  454.73    0.18   21.29    0.00    0.00   98.13
    120  17   I-K-U-2c   .106E+03   91.00   60.00    0.67    0.00    0.00    0.00    0.20  233.17   98.29   30.81   81.44   37.46    0.02   19.95    0.00    0.00   98.29
    121  18   I-Bh-2c-   .269E+02   81.00   70.00    0.98    0.00  118.81    0.00    0.20  679.48  338.25  138.45  183.89   12.09    6.84   59.21    3.79    1.17  338.25
    122  18   I-Bh-2c-   .177E+03   81.00   70.00    6.70    0.00  139.06    0.00    0.20  679.48  324.84  157.38  176.87   80.92   11.39   80.79    3.61    1.12  324.84
    123  18   GLACIER-   .621E+02   84.00   15.24   10.67    0.00    9.79    0.00    0.20  679.48  465.83   83.44   93.58    0.01    1.91    0.03    0.35    0.00  465.83
    124  18   I-Bh-2c-   .429E+02   79.00   70.00    1.10    0.00    0.00    0.00    0.20  679.48  336.59  156.64  148.72    7.17    0.50   31.04    0.59    0.00  336.59
    125  18   I-Bh-2c-   .323E+03   79.00   70.00    7.41    0.00    9.61    0.00    0.20  679.48  325.05  173.87  144.78   35.83    0.98   52.23    0.59    0.00  325.05
    126  19   I-K-U-2c   .104E+02   83.00   60.00    3.91    0.00   16.94    0.00    0.20  296.25  124.41   37.84  105.90  479.85    0.33   30.21    0.00    0.00  124.41
    127  19   I-K-U-2c   .105E+02   83.00   60.00    1.00    0.00   16.74    0.00    0.20  296.25  124.82   38.12  105.01   77.09    0.17   27.82    0.00    0.00  124.82
    128  19   I-Bh-2c-   .156E+02   79.00   70.00    7.67    0.00    0.00    0.00    0.20  296.25  113.97   17.21  132.09  804.30    0.22   39.45    0.00    0.00  113.97
    129  19   I-K-U-2c   .512E+02   79.00   60.00    5.10    0.00    0.00    0.00    0.20  296.25  114.45   11.01  134.67  380.71    0.13   22.82    0.00    0.00  114.45
    130  19   I-K-U-2c   .792E+01   79.00   60.00    1.33    0.00    0.00    0.00    0.20  296.25  116.03    5.01  136.45   74.59    0.02   21.37    0.00    0.00  116.03
    131  19   I-K-U-2c   .954E+01   91.00   60.00    0.93    0.00    0.00    0.00    0.20  296.25  140.36   31.57   99.49  110.23    0.02   21.57    0.00    0.00  140.36
    132  19   I-K-U-2c   .232E+02   91.00   60.00    4.43    0.00    0.00    0.00    0.20  296.25  140.29   34.63   94.98  883.62    0.14   21.24    0.00    0.00  140.29
    133  19   I-K-U-2c   .197E+02   91.00   60.00    7.70    0.00    0.00    0.00    0.20  296.25  140.31   31.59   94.79 1619.92    0.17   21.24    0.00    0.00  140.31
    134  19   I-K-U-2c   .519E+01   91.00   60.00    0.82    0.00    0.00    0.00    0.20  296.25  140.28   32.58   98.50   92.60    0.02   21.47    0.00    0.00  140.28
    135  20   I-Bh-2c-   .129E+03   81.00   70.00    6.88    0.00  115.12   16.03    0.20  333.76  161.23   12.39  156.61   39.19   12.67  152.02    0.00    0.00  161.23
    136  20   I-Bh-2c-   .163E+02   81.00   70.00    1.13    0.00  115.53    0.00    0.20  333.76  161.27    0.34  164.81    6.03   11.37   81.74    0.00    0.00  161.27
    137  20   I-K-U-2c   .151E+03   81.00   60.00    8.75    0.00  114.33   15.86    0.20  333.76  164.17   10.45  155.42   45.50   12.44  134.36    0.00    0.00  164.17
    138  20   I-Bh-2c-   .372E+03   79.00   70.00    7.23    0.00    0.00    0.00    0.20  333.76  167.26   15.78  122.39   96.01    0.93   46.58    0.07    0.00  167.26
    139  20   I-K-U-2c   .368E+03   79.00   60.00    8.83    0.00    0.00    0.00    0.20  333.76  167.64   15.85  121.07  113.36    0.88   28.42    0.07    0.00  167.64
    140  21   I-Bh-2c-   .169E+03   79.00   70.00    8.83    0.00    0.00    0.00    0.20  258.95   98.76   13.47  135.01  413.18    0.63   39.39    0.00    0.00   98.76
    141  21   I-Bh-2c-   .745E+02   91.00   70.00   10.22    0.00    0.00    0.00    0.20  258.95  121.94   15.90   99.83 1506.24    0.93   37.73    0.00    0.00  121.94
    142  22   I-Bh-2c-   .272E+03   81.00   70.00    5.34    0.00   86.17    0.00    0.20  467.49  158.71  108.42  175.11   29.04    2.09   60.46    0.00    0.00  158.71
    143  22   I-Bh-2c-   .897E+02   81.00   70.00    0.78    0.00   85.10    0.00    0.20  467.49  161.28   98.76  182.07    4.11    1.64   30.57    0.00    0.00  161.28
    144  22   I-Bh-2c-   .443E+03   79.00   70.00    5.75    0.00    0.00    0.00    0.20  467.49  171.07  131.62  131.74    4.38    1.35   26.28    1.71    0.00  171.07
    145  22   I-Bh-2c-   .685E+02   79.00   70.00    1.03    0.00    0.00    0.00    0.20  467.49  174.57  121.97  135.97    0.86    1.13    7.95    1.88    0.00  174.57
    146  23   I-Bh-2c-   .153E+02   79.00   70.00    1.20    0.00    0.00    0.00    0.20  163.67   37.47    0.19  115.38   25.95    0.21   31.58    0.00    0.00   37.47
    147  23   I-Bh-2c-   .120E+03   79.00   70.00    7.49    0.00    0.00    0.00    0.20  163.67   39.17    6.79  108.40  203.46    0.36   38.16    0.00    0.00   39.17
    148  23   I-Y-2c-3   .373E+02   84.00   70.00    7.57    0.00    0.00    0.00    0.20  163.67   53.46    1.91   98.72  486.45    0.37   10.81    0.00    0.00   53.46
    149  23   I-Bh-2c-   .718E+01   91.00   70.00    1.08    0.00    0.00    0.00    0.20  163.67   67.73    0.17   87.62   62.19    0.44   37.03    0.00    0.00   67.73
    150  23   I-Bh-2c-   .539E+02   91.00   70.00    7.83    0.00    0.00    0.00    0.20  163.67   67.64    6.92   82.22  649.31    0.62   37.73    0.00    0.00   67.64
    151  23   I-Y-2c-3   .129E+01   94.00   70.00    1.25    0.00    0.00    0.00    0.20  163.67   74.00    0.07   75.13   85.96    0.43   10.63    0.00    0.00   74.00
    152  23   I-Y-2c-3   .759E+01   94.00   70.00    5.58    0.00    0.00    0.00    0.20  163.67   73.99    2.41   73.94  900.57    0.56   10.84    0.00    0.00   73.99
    153  23   I-Bh-2c-   .133E+03   91.00   70.00   10.19    0.00    0.00    0.00    0.20  163.67   67.61    7.96   80.63  588.89    0.65   37.73    0.00    0.00   67.61
    154  23   I-Y-2c-3   .107E+03   94.00   70.00   10.19    0.00    0.00    0.00    0.20  163.67   73.98    3.59   72.33  881.61    0.61   10.84    0.00    0.00   73.98
    155  23   I-Bh-2c-   .135E+02   92.00   70.00   10.06    0.00    0.00    0.00    0.20  163.67    0.00    0.00  978.53    0.00    0.00    0.00    0.00    0.00    0.00
    156  23   I-Y-2c-3   .708E+02   92.00   70.00   11.05    0.00    0.00    0.00    0.20  163.67    0.00    0.00  978.53    0.00    0.00    0.00    0.00    0.00    0.00



                AVE MONTHLY BASIN VALUES
                   SNOW                      WATER               SED
  MON     RAIN     FALL   SURF Q    LAT Q    YIELD       ET    YIELD      PET
          (MM)     (MM)     (MM)     (MM)     (MM)     (MM)   (T/HA)     (MM)
    1     7.72     7.44     0.00     0.00     0.23     1.17     0.00     4.58
    2     8.10     7.78     0.00     0.00     0.11     1.70     0.00     8.03
    3    21.27    20.42     0.08     0.00     0.15     2.83     0.12    14.02
    4    63.81    60.95     1.33     0.00     1.33     5.20     1.33    19.92
    5    80.52    52.70    83.34     5.88    91.21    21.10   136.30    49.58
    6    72.44    53.31    72.13     7.90    89.64    38.35   148.01   106.54
    7    33.61    16.59    21.10     4.74    43.45    38.26    81.93   152.97
    8    33.36    10.63     5.26     2.42    23.26    28.70    20.75   152.70
    9    16.54    13.20     1.30     1.22    10.31    17.03     4.01    98.09
   10    41.68    38.75     2.28     0.57     5.98     7.18     3.06    34.07
   11    40.34    37.86     0.00     0.07     1.39     1.67     0.00     6.52
   12    15.85    14.63     0.26     0.00     0.95     1.40     0.42     5.59

     AVE ANNUAL BASIN STRESS DAYS
               WATER STRESS DAYS =     8.15
               TEMPERATURE STRESS DAYS =   169.55
               NITROGEN STRESS DAYS =     3.70
               PHOSPHORUS STRESS DAYS =     0.09
               AERATION STRESS DAYS =     0.00
1
    SWAT Sep 7    VER 2018/Rev 670                                                  

    General Input/Output section (file.cio):                                        
    5/13/2020 12:00:00 AM ARCGIS-SWAT interface AV                                  
                                                                                    
         AVE ANNUAL BASIN VALUES

              PRECIP =    435.4 MM
              SNOW FALL =  334.34 MM
              SNOW MELT =   290.61 MM
              SUBLIMATION =    29.62 MM
              SURFACE RUNOFF Q =   187.32 MM
              LATERAL SOIL Q =   22.84 MM
              TILE Q =     0.00 MM
              GROUNDWATER (SHAL AQ) Q =    54.95 MM
              GROUNDWATER (DEEP AQ) Q =     3.24 MM
              REVAP (SHAL AQ => SOIL/PLANTS) =   11.77 MM
              DEEP AQ RECHARGE =     3.52 MM
              TOTAL AQ RECHARGE =   70.47 MM
              TOTAL WATER YLD =   268.36 MM
              PERCOLATION OUT OF SOIL =   70.55 MM
              ET =    164.8 MM
              PET =    653.3MM
              TRANSMISSION LOSSES =     0.00 MM
              SEPTIC INFLOW =       0.00 MM
              TOTAL SEDIMENT LOADING =    396.47 T/HA
              TILE FROM IMPOUNDED WATER =     0.000 (MM)
              EVAPORATION FROM IMPOUNDED WATER =     0.000 (MM)
              SEEPAGE INTO SOIL FROM IMPOUNDED WATER =    0.000 (MM)
              OVERFLOW FROM IMPOUNDED WATER =    0.000 (MM)
1
    SWAT Sep 7    VER 2018/Rev 670                                                  

    General Input/Output section (file.cio):                                        
    5/13/2020 12:00:00 AM ARCGIS-SWAT interface AV                                  
                                                                                    
              AVE ANNUAL BASIN VALUES


              NUTRIENTS
                   ORGANIC N =    34.438 (KG/HA)
                   ORGANIC P =     4.248 (KG/HA)
                   NO3 YIELD (SQ) =     1.392 (KG/HA)
                   NO3 YIELD (LAT) =    0.319 (KG/HA)
                   NO3 YIELD (TILE) =    0.000 (KG/HA)
                   SOLP YIELD (TILE) =    0.000(KG/HA)
                   SOLP YIELD (SURF INLET RISER) =    0.000 (KG/HA)
                   SOL P YIELD =    0.030 (KG/HA)
                   NO3 LEACHED =     3.430 (KG/HA)
                   P LEACHED =     0.030 (KG/HA)
                   N UPTAKE =    18.653 (KG/HA)
                   P UPTAKE =    2.264 (KG/HA)
                   NO3 YIELD (GWQ) =     0.021 (KG/HA)
                   ACTIVE TO SOLUTION P FLOW =        -0.898 (KG/HA)
                   ACTIVE TO STABLE P FLOW =        -0.622 (KG/HA)
                   N FERTILIZER APPLIED =    15.517 (KG/HA)
                   P FERTILIZER APPLIED =     0.000 (KG/HA)
                   N FIXATION =     0.000 (KG/HA)
                   DENITRIFICATION =     1.466 (KG/HA)
                   HUMUS MIN ON ACTIVE ORG N =     1.548 (KG/HA)
                   ACTIVE TO STABLE ORG N =    -0.236 (KG/HA)
                   HUMUS MIN ON ACTIVE ORG P =    0.265 (KG/HA)
                   MIN FROM FRESH ORG N =    6.920 (KG/HA)
                   MIN FROM FRESH ORG P =    0.881 (KG/HA)
                   NO3 IN RAINFALL =     0.805 (KG/HA)
                   INITIAL NO3 IN SOIL =      42.764 (KG/HA)
                   FINAL NO3 IN SOIL =        14.588 (KG/HA)
                   INITIAL ORG N IN SOIL =   13093.731 (KG/HA)
                   FINAL ORG N IN SOIL =     12796.046 (KG/HA)
                   INITIAL MIN P IN SOIL =    2293.496 (KG/HA)
                   FINAL MIN P IN SOIL =      2246.795 (KG/HA)
                   INITIAL ORG P IN SOIL =    1603.982 (KG/HA)
                   FINAL ORG P IN SOIL =    1567.205 (KG/HA)
                   NO3 IN FERT =    15.517 (KG/HA)
                   AMMONIA IN FERT =     0.000 (KG/HA)
                   ORG N IN FERT =     0.000 (KG/HA)
                   MINERAL P IN FERT =     0.379 (KG/HA)
                   ORG P IN FERT =     0.000 (KG/HA)
                   N REMOVED IN YIELD =     4.985 (KG/HA)
                   P REMOVED IN YIELD =     0.439 (KG/HA)
                   AMMONIA VOLATILIZATION =     0.000 (KG/HA)
                   AMMONIA NITRIFICATION =      0.000 (KG/HA)
                   NO3 EVAP-LAYER 2 TO 1 =    2.082

                   DIE-GRO P Q =           0.0 (No/M2)
                   DIE-GRO LP Q =           0.0 (No/M2)
                   DIE-GRO P SED =          0.0 (No/M2)
                   DIE-GRO LP SED =          0.0 (No/M2)
                   BACT P RUNOFF =          0.0 (No/M2)
                   BACT LP RUNOFF =          0.0 (No/M2)
                   BACT P SEDIMENT =          0.0 (No/M2)
                   BACT LP SEDIMENT =          0.0 (No/M2)
                   BACT P INCORP =          0.0 (No/M2)
                   BACT LP INCORP =          0.0 (No/M2)

                   NITRATE SEPTIC =         0.00 (kg/ha)
                   AMMONIA SEPTIC =         0.00 (kg/ha)
                   ORG N SEPTIC =         0.00 (kg/ha)
                   FRESH ORGN SEPTIC =         0.00 (kg/ha)
                   ORG P SEPTIC =         0.00 (kg/ha)
                   FRESH ORGP SEPTIC =         0.00 (kg/ha)
                   SOL P SEPTIC =         0.00 (kg/ha)
                   BOD SEPTIC =         0.00 (kg/ha)
