1
    SWAT Sep 7    VER 2018/Rev 670                                                                       0/ 0/   0      0: 0: 0

    General Input/Output section (file.cio):                                        
    5/13/2020 12:00:00 AM ARCGIS-SWAT interface AV                                  
                                                                                    
         Number of years in run:    7
         Area of watershed:    10212.716 km2
         Random number generator cycles: 0, use default numbers

         Initial random number seed: wet/dry day prob        748932582
         Initial random number seed: radiation              1948832765
         Initial random number seed: precipitation           857034417
         Initial random number seed: 0.5 hr rainfall          67377721
         Initial random number seed: wind speed              366304404
         Initial random number seed: irrigation             1094585182
         Initial random number seed: relative humidity      1767585417
         Initial random number seed: max temperature         608439319
         Initial random number seed: min temperature         592757081

         Precipitation data used in run:
          Multiple gages read for watershed
             Daily rainfall data used

         Temperature data used in run:
          Multiple gages simulated for watershed

         PET method used: Penman-Monteith

         Rainfall/Runoff/Routing Option:
          Daily rainfall data
          Runoff estimated with curve number method
          Daily stream routing
           Variable Storage routing method
           Channel dimensions remain constant
           Subbasin algae/CBOD loadings not modeled
           In-stream nutrient transformations modeled using QUAL2E equations

         Subbasin Input Summary:
          Sub Latitude  Elev(m) #HRUs Ponds Elevbnds Wetlnd
            1    41.88  3922.67     5                   
            2    41.88  3966.36     9                   
            3    41.88  3712.46     5                   
            4    41.88  3707.07    13                   
            5    41.88  3148.60     6                   
            6    41.86  3186.56     4                   
            7    41.86  3687.17     9                   
            8    41.86  2676.85     2                   
            9    41.86  2854.22     4                   
           10    41.86  2959.65     4                   
           11    41.86  3335.63    12                   
           12    41.86  3669.57     8                   
           13    41.86  3660.94     6                   
           14    41.86  3228.37     3                   
           15    41.88  3775.67    15                   
           16    41.88  3928.41     8                   
           17    41.88  3529.03     7                   
           18    41.88  3188.54     5                   
           19    41.88  3447.92     9                   
           20    41.76  3306.61     5                   
           21    41.76  3758.91     2                   
           22    41.76  2819.05     4                   
           23    41.76  3920.40    11                   

         HRU Input Summary Table 1:
          Sub   HRU   Area(ha) Slope SlpLgth(m) Ovrlnd_N CondII_CN TimeConc(hr) ESCO EPCO
            1      1   24160.27 0.046      91.46    0.150     84.00        2.237 0.95 1.00
            1      2   19584.21 0.294       9.15    0.150     84.00        1.398 0.95 1.00
            1      3   11677.69 0.422       9.15    0.140     94.00        0.911 0.95 1.00
            1      4    7042.90 0.381       9.15    0.010     92.00        0.549 0.95 1.00
            1      5    1623.71 0.071      60.98    0.010     92.00        0.239 0.95 1.00
            2      6    8424.82 0.263       9.15    0.150     84.00        0.704 0.95 1.00
            2      7   12521.98 0.053      60.98    0.150     84.00        1.361 0.95 1.00
            2      8    3048.09 0.494       9.15    0.140     94.00        0.328 0.95 1.00
            2      9    1725.85 0.044      91.46    0.140     94.00        0.806 0.95 1.00
            2     10    2763.74 0.332       9.15    0.140     94.00        0.318 0.95 1.00
            2     11    7472.57 0.380       9.15    0.010     92.00        0.561 0.95 1.00
            2     12    3822.42 0.066      60.98    0.010     92.00        0.396 0.95 1.00
            2     13     489.79 0.033      91.46    0.010     92.00        0.197 0.95 1.00
            2     14    1114.51 0.422       9.15    0.010     92.00        0.120 0.95 1.00
            3     15    2686.61 0.063      60.98    0.140     81.00        0.697 0.95 1.00
            3     16    7250.32 0.309       9.15    0.140     81.00        0.654 0.95 1.00
            3     17   24102.34 0.391       9.15    0.150     79.00        1.697 0.95 1.00
            3     18    5384.05 0.062      60.98    0.150     79.00        0.916 0.95 1.00
            3     19   10798.43 0.490       9.15    0.140     91.00        0.876 0.95 1.00
            4     20    3001.48 0.058      60.98    0.140     81.00        0.649 0.95 1.00
            4     21    9917.16 0.336       9.15    0.140     81.00        0.589 0.95 1.00
            4     22     338.22 0.071      60.98    0.140     81.00        0.471 0.95 1.00
            4     23    1645.21 0.265       9.15    0.140     81.00        0.200 0.95 1.00
            4     24   30365.36 0.425       9.15    0.150     79.00        1.417 0.95 1.00
            4     25    6251.01 0.055      60.98    0.150     79.00        0.834 0.95 1.00
            4     26    1098.91 0.070      60.98    0.150     79.00        0.539 0.95 1.00
            4     27    7333.74 0.358       9.15    0.150     79.00        0.475 0.95 1.00
            4     28    6541.78 0.397       9.15    0.150     84.00        0.436 0.95 1.00
            4     29    1184.83 0.065      60.98    0.150     84.00        0.554 0.95 1.00
            4     30   15394.34 0.496       9.15    0.140     91.00        0.814 0.95 1.00
            4     31    6188.57 0.458       9.15    0.140     91.00        0.412 0.95 1.00
            4     32    6547.96 0.496       9.15    0.140     94.00        0.427 0.95 1.00
            5     33     586.80 0.066      60.98    0.140     81.00        0.508 0.95 1.00
            5     34    3783.69 0.302       9.15    0.140     81.00        0.365 0.95 1.00
            5     35    6055.94 0.304       9.15    0.150     79.00        0.507 0.95 1.00
            5     36    3915.40 0.047      91.46    0.150     79.00        0.950 0.95 1.00
            5     37    2791.05 0.039      91.46    0.140     91.00        0.888 0.95 1.00
            5     38     466.87 0.184      18.29    0.140     91.00        0.206 0.95 1.00
            6     39    1332.86 0.051      60.98    0.140     81.00        0.629 0.95 1.00
            6     40    5930.08 0.302       9.15    0.140     81.00        0.600 0.95 1.00
            6     41   12912.42 0.044      91.46    0.150     79.00        1.686 0.95 1.00
            6     42   20319.17 0.287       9.15    0.150     79.00        1.589 0.95 1.00
            7     43    1308.41 0.062      60.98    0.140     81.00        0.557 0.95 1.00
            7     44    5413.81 0.340       9.15    0.140     81.00        0.411 0.95 1.00
            7     45   18252.90 0.384       9.15    0.150     79.00        1.022 0.95 1.00
            7     46    3030.59 0.068      60.98    0.150     79.00        0.664 0.95 1.00
            7     47    1044.67 0.404       9.15    0.140     94.00        0.161 0.95 1.00
            7     48    4131.45 0.472       9.15    0.140     91.00        0.335 0.95 1.00
            7     49     293.05 0.082      60.98    0.010     92.00        0.113 0.95 1.00
            7     50    2209.81 0.375       9.15    0.010     92.00        0.165 0.95 1.00
            7     51    3041.74 0.429       9.15    0.010     92.00        0.212 0.95 1.00
            8     52      17.63 0.037      91.46    0.150     79.00        0.799 0.95 1.00
            8     53       2.59 0.135      24.39    0.150     79.00        0.236 0.95 1.00
            9     54    1413.47 0.042      91.46    0.150     79.00        0.926 0.95 1.00
            9     55     999.98 0.265       9.15    0.150     79.00        0.272 0.95 1.00
            9     56    1351.45 0.051      60.98    0.140     91.00        0.716 0.95 1.00
            9     57     916.20 0.219      15.24    0.140     91.00        0.298 0.95 1.00
           10     58     889.21 0.354       9.15    0.150     79.00        0.390 0.95 1.00
           10     59     250.23 0.067      60.98    0.150     79.00        0.570 0.95 1.00
           10     60      33.06 0.070      60.98    0.140     91.00        0.464 0.95 1.00
           10     61     245.10 0.337       9.15    0.140     91.00        0.186 0.95 1.00
           11     62    1801.86 0.417       9.15    0.140     84.00        0.211 0.95 1.00
           11     63    1310.90 0.414       9.15    0.140     81.00        0.180 0.95 1.00
           11     64     617.06 0.391       9.15    0.140     81.00        0.135 0.95 1.00
           11     65    5393.24 0.394       9.15    0.150     84.00        0.421 0.95 1.00
           11     66     910.74 0.070      60.98    0.150     84.00        0.536 0.95 1.00
           11     67    1869.67 0.067      60.98    0.150     79.00        0.604 0.95 1.00
           11     68    7457.39 0.338       9.15    0.150     79.00        0.534 0.95 1.00
           11     69    4579.47 0.440       9.15    0.150     79.00        0.374 0.95 1.00
           11     70     619.51 0.286       9.15    0.140     94.00        0.144 0.95 1.00
           11     71     160.00 0.072      60.98    0.140     94.00        0.459 0.95 1.00
           11     72     766.62 0.069      60.98    0.140     91.00        0.509 0.95 1.00
           11     73    2295.77 0.325       9.15    0.140     91.00        0.248 0.95 1.00
           12     74    1074.70 0.062      60.98    0.150     84.00        0.575 0.95 1.00
           12     75    5134.60 0.383       9.15    0.150     84.00        0.450 0.95 1.00
           12     76   16131.20 0.371       9.15    0.150     79.00        1.071 0.95 1.00
           12     77    2665.00 0.068      60.98    0.150     79.00        0.673 0.95 1.00
           12     78   10692.09 0.375       9.15    0.150     79.00        0.774 0.95 1.00
           12     79    1382.06 0.076      60.98    0.150     79.00        0.569 0.95 1.00
           12     80    2785.42 0.468       9.15    0.140     91.00        0.292 0.95 1.00
           12     81    6200.84 0.482       9.15    0.140     91.00        0.505 0.95 1.00
           13     82   15645.65 0.053      60.98    0.150     79.00        1.079 0.95 1.00
           13     83   20883.91 0.326       9.15    0.150     79.00        0.832 0.95 1.00
           13     84    7672.23 0.273       9.15    0.140     91.00        0.402 0.95 1.00
           13     85    8631.11 0.053      60.98    0.140     91.00        0.826 0.95 1.00
           13     86    8131.08 0.042      91.46    0.140     91.00        0.988 0.95 1.00
           13     87   16033.59 0.458       9.15    0.140     91.00        0.667 0.95 1.00
           14     88     455.85 0.030      91.46    0.140     91.00        1.100 0.95 1.00
           14     89     114.25 0.230      15.24    0.140     91.00        0.245 0.95 1.00
           14     90     468.48 0.034      91.46    0.140     91.00        1.082 0.95 1.00
           15     91   10048.68 0.051      60.98    0.150     79.00        1.139 0.95 1.00
           15     92   14518.68 0.340       9.15    0.150     79.00        0.958 0.95 1.00
           15     93    4369.59 0.052      60.98    0.150     84.00        0.812 0.95 1.00
           15     94    6880.41 0.405       9.15    0.150     84.00        0.538 0.95 1.00
           15     95    6524.51 0.043      91.46    0.140     91.00        1.090 0.95 1.00
           15     96    3885.76 0.312       9.15    0.140     91.00        0.365 0.95 1.00
           15     97    2775.37 0.478       9.15    0.140     94.00        0.284 0.95 1.00
           15     98    1763.72 0.054      60.98    0.140     94.00        0.620 0.95 1.00
           15     99    4567.72 0.563       9.15    0.140     94.00        0.391 0.95 1.00
           15    100    4170.67 0.023      91.46    0.140     91.00        1.087 0.95 1.00
           15    101    3710.52 0.444       9.15    0.140     91.00        0.345 0.95 1.00
           15    102    1534.24 0.022      91.46    0.140     94.00        0.928 0.95 1.00
           15    103    3385.20 0.577       9.15    0.140     94.00        0.318 0.95 1.00
           15    104    7505.63 0.424       9.15    0.010     92.00        0.503 0.95 1.00
           15    105    1815.21 0.077      60.98    0.010     92.00        0.229 0.95 1.00
           16    106    1556.21 0.069      60.98    0.150     79.00        0.604 0.95 1.00
           16    107    8876.59 0.395       9.15    0.150     79.00        0.712 0.95 1.00
           16    108    1219.79 0.063      60.98    0.140     91.00        0.571 0.95 1.00
           16    109    3820.81 0.349       9.15    0.140     91.00        0.386 0.95 1.00
           16    110    8702.84 0.563       9.15    0.140     91.00        0.689 0.95 1.00
           16    111    1657.57 0.607       9.15    0.140     94.00        0.218 0.95 1.00
           16    112    2190.19 0.586       9.15    0.010     92.00        0.199 0.95 1.00
           16    113    1902.27 0.608       9.15    0.010     92.00        0.177 0.95 1.00
           17    114    3778.60 0.510       9.15    0.150     79.00        0.328 0.95 1.00
           17    115    3571.53 0.053      60.98    0.150     79.00        0.741 0.95 1.00
           17    116   13491.67 0.370       9.15    0.150     79.00        0.840 0.95 1.00
           17    117    9331.47 0.283       9.15    0.140     91.00        0.637 0.95 1.00
           17    118    6132.91 0.047      91.46    0.140     91.00        1.018 0.95 1.00
           17    119   10214.66 0.341       9.15    0.140     91.00        0.676 0.95 1.00
           17    120   10552.48 0.040      91.46    0.140     91.00        1.279 0.95 1.00
           18    121    2685.91 0.060      60.98    0.140     81.00        0.611 0.95 1.00
           18    122   17743.01 0.414       9.15    0.140     81.00        0.829 0.95 1.00
           18    123    6206.95 0.565       9.15    0.150     84.00        0.377 0.95 1.00
           18    124    4294.86 0.065      60.98    0.150     79.00        0.692 0.95 1.00
           18    125   32254.79 0.442       9.15    0.150     79.00        1.342 0.95 1.00
           19    126    1043.80 0.246      15.24    0.140     83.00        0.227 0.95 1.00
           19    127    1053.10 0.061      60.98    0.140     83.00        0.561 0.95 1.00
           19    128    1563.08 0.452       9.15    0.150     79.00        0.219 0.95 1.00
           19    129    5121.29 0.349       9.15    0.150     79.00        0.470 0.95 1.00
           19    130     792.00 0.074      60.98    0.150     79.00        0.532 0.95 1.00
           19    131     954.24 0.058      60.98    0.140     91.00        0.560 0.95 1.00
           19    132    2318.45 0.320       9.15    0.140     91.00        0.280 0.95 1.00
           19    133    1970.91 0.453       9.15    0.140     91.00        0.246 0.95 1.00
           19    134     519.08 0.053      60.98    0.140     91.00        0.537 0.95 1.00
           20    135   12865.76 0.421       9.15    0.140     81.00        0.743 0.95 1.00
           20    136    1629.83 0.066      60.98    0.140     81.00        0.563 0.95 1.00
           20    137   15147.84 0.493       9.15    0.140     81.00        0.840 0.95 1.00
           20    138   37225.75 0.435       9.15    0.150     79.00        1.756 0.95 1.00
           20    139   36800.48 0.496       9.15    0.150     79.00        1.736 0.95 1.00
           21    140   16863.30 0.496       9.15    0.150     79.00        0.840 0.95 1.00
           21    141    7451.67 0.548       9.15    0.140     91.00        0.448 0.95 1.00
           22    142   27186.56 0.359       9.15    0.140     81.00        0.916 0.95 1.00
           22    143    8972.18 0.051      60.98    0.140     81.00        0.805 0.95 1.00
           22    144   44322.93 0.376       9.15    0.150     79.00        1.360 0.95 1.00
           22    145    6849.78 0.062      60.98    0.150     79.00        0.731 0.95 1.00
           23    146    1526.55 0.069      60.98    0.150     79.00        0.583 0.95 1.00
           23    147   12040.87 0.445       9.15    0.150     79.00        0.785 0.95 1.00
           23    148    3728.33 0.448       9.15    0.150     84.00        0.336 0.95 1.00
           23    149     717.63 0.064      60.98    0.140     91.00        0.519 0.95 1.00
           23    150    5390.09 0.458       9.15    0.140     91.00        0.428 0.95 1.00
           23    151     128.67 0.071      60.98    0.140     94.00        0.458 0.95 1.00
           23    152     759.15 0.369       9.15    0.140     94.00        0.149 0.95 1.00
           23    153   13260.13 0.547       9.15    0.140     91.00        0.839 0.95 1.00
           23    154   10667.17 0.547       9.15    0.140     94.00        0.707 0.95 1.00
           23    155    1350.53 0.542       9.15    0.010     92.00        0.119 0.95 1.00
           23    156    7082.67 0.579       9.15    0.010     92.00        0.455 0.95 1.00

         HRU CN Input Summary Table:
          Sub   HRU   Area(ha)  LULC      Soil    CN1    CN2    CN3  Wilting Point (mm H2O)  Field Capacity (mm H2O)  Saturation (mm H2O)
            1      1   24160.27  GRAS  I-Y-2c-3   68.4   84.0   93.5                   164.6                     70.0                280.6
            1      2   19584.21  GRAS  I-Y-2c-3   68.4   84.0   93.5                   164.6                     70.0                280.6
            1      3   11677.69  BARR  I-Y-2c-3   85.8   94.0   97.9                   164.6                     70.0                280.6
            1      4    7042.90  WATR  I-Y-2c-3   81.7   92.0   97.1                   164.6                     70.0                280.6
            1      5    1623.71  WATR  I-Y-2c-3   81.7   92.0   97.1                   164.6                     70.0                280.6
            2      6    8424.82  GRAS  I-Y-2c-3   68.4   84.0   93.5                   164.6                     70.0                280.6
            2      7   12521.98  GRAS  I-Y-2c-3   68.4   84.0   93.5                   164.6                     70.0                280.6
            2      8    3048.09  BARR  GLACIER-   85.8   94.0   97.9                    61.0                     15.2                312.9
            2      9    1725.85  BARR  I-Y-2c-3   85.8   94.0   97.9                   164.6                     70.0                280.6
            2     10    2763.74  BARR  I-Y-2c-3   85.8   94.0   97.9                   164.6                     70.0                280.6
            2     11    7472.57  WATR  GLACIER-   81.7   92.0   97.1                    61.0                     15.2                312.9
            2     12    3822.42  WATR  GLACIER-   81.7   92.0   97.1                    61.0                     15.2                312.9
            2     13     489.79  WATR  I-Y-2c-3   81.7   92.0   97.1                   164.6                     70.0                280.6
            2     14    1114.51  WATR  I-Y-2c-3   81.7   92.0   97.1                   164.6                     70.0                280.6
            3     15    2686.61  AGRC  I-Bh-2c-   64.3   81.0   92.0                   137.2                     70.0                394.8
            3     16    7250.32  AGRC  I-Bh-2c-   64.3   81.0   92.0                   137.2                     70.0                394.8
            3     17   24102.34  GRAS  I-Bh-2c-   61.7   79.0   91.0                   137.2                     70.0                394.8
            3     18    5384.05  GRAS  I-Bh-2c-   61.7   79.0   91.0                   137.2                     70.0                394.8
            3     19   10798.43  BARR  I-Bh-2c-   79.8   91.0   96.7                   137.2                     70.0                394.8
            4     20    3001.48  AGRC  I-Bh-2c-   64.3   81.0   92.0                   137.2                     70.0                394.8
            4     21    9917.16  AGRC  I-Bh-2c-   64.3   81.0   92.0                   137.2                     70.0                394.8
            4     22     338.22  AGRC  I-K-U-2c   64.3   81.0   92.0                   146.6                     60.0                374.1
            4     23    1645.21  AGRC  I-K-U-2c   64.3   81.0   92.0                   146.6                     60.0                374.1
            4     24   30365.36  GRAS  I-Bh-2c-   61.7   79.0   91.0                   137.2                     70.0                394.8
            4     25    6251.01  GRAS  I-Bh-2c-   61.7   79.0   91.0                   137.2                     70.0                394.8
            4     26    1098.91  GRAS  I-K-U-2c   61.7   79.0   91.0                   146.6                     60.0                374.1
            4     27    7333.74  GRAS  I-K-U-2c   61.7   79.0   91.0                   146.6                     60.0                374.1
            4     28    6541.78  GRAS  I-Y-2c-3   68.4   84.0   93.5                   164.6                     70.0                280.6
            4     29    1184.83  GRAS  I-Y-2c-3   68.4   84.0   93.5                   164.6                     70.0                280.6
            4     30   15394.34  BARR  I-Bh-2c-   79.8   91.0   96.7                   137.2                     70.0                394.8
            4     31    6188.57  BARR  I-K-U-2c   79.8   91.0   96.7                   146.6                     60.0                374.1
            4     32    6547.96  BARR  I-Y-2c-3   85.8   94.0   97.9                   164.6                     70.0                280.6
            5     33     586.80  AGRC  I-Bh-2c-   64.3   81.0   92.0                   137.2                     70.0                394.8
            5     34    3783.69  AGRC  I-Bh-2c-   64.3   81.0   92.0                   137.2                     70.0                394.8
            5     35    6055.94  GRAS  I-Bh-2c-   61.7   79.0   91.0                   137.2                     70.0                394.8
            5     36    3915.40  GRAS  I-Bh-2c-   61.7   79.0   91.0                   137.2                     70.0                394.8
            5     37    2791.05  BSVG  I-Bh-2c-   79.8   91.0   96.7                   137.2                     70.0                394.8
            5     38     466.87  BSVG  I-Bh-2c-   79.8   91.0   96.7                   137.2                     70.0                394.8
            6     39    1332.86  AGRC  I-Bh-2c-   64.3   81.0   92.0                   137.2                     70.0                394.8
            6     40    5930.08  AGRC  I-Bh-2c-   64.3   81.0   92.0                   137.2                     70.0                394.8
            6     41   12912.42  GRAS  I-Bh-2c-   61.7   79.0   91.0                   137.2                     70.0                394.8
            6     42   20319.17  GRAS  I-Bh-2c-   61.7   79.0   91.0                   137.2                     70.0                394.8
            7     43    1308.41  AGRC  I-Bh-2c-   64.3   81.0   92.0                   137.2                     70.0                394.8
            7     44    5413.81  AGRC  I-Bh-2c-   64.3   81.0   92.0                   137.2                     70.0                394.8
            7     45   18252.90  GRAS  I-Bh-2c-   61.7   79.0   91.0                   137.2                     70.0                394.8
            7     46    3030.59  GRAS  I-Bh-2c-   61.7   79.0   91.0                   137.2                     70.0                394.8
            7     47    1044.67  BARR  GLACIER-   85.8   94.0   97.9                    61.0                     15.2                312.9
            7     48    4131.45  BARR  I-Bh-2c-   79.8   91.0   96.7                   137.2                     70.0                394.8
            7     49     293.05  WATR  GLACIER-   81.7   92.0   97.1                    61.0                     15.2                312.9
            7     50    2209.81  WATR  GLACIER-   81.7   92.0   97.1                    61.0                     15.2                312.9
            7     51    3041.74  WATR  I-Bh-2c-   81.7   92.0   97.1                   137.2                     70.0                394.8
            8     52      17.63  GRAS  I-Bh-2c-   61.7   79.0   91.0                   137.2                     70.0                394.8
            8     53       2.59  GRAS  I-Bh-2c-   61.7   79.0   91.0                   137.2                     70.0                394.8
            9     54    1413.47  GRAS  I-Bh-2c-   61.7   79.0   91.0                   137.2                     70.0                394.8
            9     55     999.98  GRAS  I-Bh-2c-   61.7   79.0   91.0                   137.2                     70.0                394.8
            9     56    1351.45  BSVG  I-Bh-2c-   79.8   91.0   96.7                   137.2                     70.0                394.8
            9     57     916.20  BSVG  I-Bh-2c-   79.8   91.0   96.7                   137.2                     70.0                394.8
           10     58     889.21  GRAS  I-Bh-2c-   61.7   79.0   91.0                   137.2                     70.0                394.8
           10     59     250.23  GRAS  I-Bh-2c-   61.7   79.0   91.0                   137.2                     70.0                394.8
           10     60      33.06  BSVG  I-Bh-2c-   79.8   91.0   96.7                   137.2                     70.0                394.8
           10     61     245.10  BSVG  I-Bh-2c-   79.8   91.0   96.7                   137.2                     70.0                394.8
           11     62    1801.86  AGRC  GLACIER-   68.4   84.0   93.5                    61.0                     15.2                312.9
           11     63    1310.90  AGRC  I-Bh-2c-   64.3   81.0   92.0                   137.2                     70.0                394.8
           11     64     617.06  AGRC  I-K-U-2c   64.3   81.0   92.0                   146.6                     60.0                374.1
           11     65    5393.24  GRAS  GLACIER-   68.4   84.0   93.5                    61.0                     15.2                312.9
           11     66     910.74  GRAS  GLACIER-   68.4   84.0   93.5                    61.0                     15.2                312.9
           11     67    1869.67  GRAS  I-Bh-2c-   61.7   79.0   91.0                   137.2                     70.0                394.8
           11     68    7457.39  GRAS  I-Bh-2c-   61.7   79.0   91.0                   137.2                     70.0                394.8
           11     69    4579.47  GRAS  I-K-U-2c   61.7   79.0   91.0                   146.6                     60.0                374.1
           11     70     619.51  BSVG  GLACIER-   85.8   94.0   97.9                    61.0                     15.2                312.9
           11     71     160.00  BSVG  GLACIER-   85.8   94.0   97.9                    61.0                     15.2                312.9
           11     72     766.62  BSVG  I-Bh-2c-   79.8   91.0   96.7                   137.2                     70.0                394.8
           11     73    2295.77  BSVG  I-Bh-2c-   79.8   91.0   96.7                   137.2                     70.0                394.8
           12     74    1074.70  GRAS  GLACIER-   68.4   84.0   93.5                    61.0                     15.2                312.9
           12     75    5134.60  GRAS  GLACIER-   68.4   84.0   93.5                    61.0                     15.2                312.9
           12     76   16131.20  GRAS  I-Bh-2c-   61.7   79.0   91.0                   137.2                     70.0                394.8
           12     77    2665.00  GRAS  I-Bh-2c-   61.7   79.0   91.0                   137.2                     70.0                394.8
           12     78   10692.09  GRAS  I-K-U-2c   61.7   79.0   91.0                   146.6                     60.0                374.1
           12     79    1382.06  GRAS  I-K-U-2c   61.7   79.0   91.0                   146.6                     60.0                374.1
           12     80    2785.42  BARR  I-Bh-2c-   79.8   91.0   96.7                   137.2                     70.0                394.8
           12     81    6200.84  BARR  I-K-U-2c   79.8   91.0   96.7                   146.6                     60.0                374.1
           13     82   15645.65  GRAS  I-K-U-2c   61.7   79.0   91.0                   146.6                     60.0                374.1
           13     83   20883.91  GRAS  I-K-U-2c   61.7   79.0   91.0                   146.6                     60.0                374.1
           13     84    7672.23  BSVG  I-K-U-2c   79.8   91.0   96.7                   146.6                     60.0                374.1
           13     85    8631.11  BSVG  I-K-U-2c   79.8   91.0   96.7                   146.6                     60.0                374.1
           13     86    8131.08  BARR  I-K-U-2c   79.8   91.0   96.7                   146.6                     60.0                374.1
           13     87   16033.59  BARR  I-K-U-2c   79.8   91.0   96.7                   146.6                     60.0                374.1
           14     88     455.85  BSVG  I-K-U-2c   79.8   91.0   96.7                   146.6                     60.0                374.1
           14     89     114.25  BARR  I-K-U-2c   79.8   91.0   96.7                   146.6                     60.0                374.1
           14     90     468.48  BARR  I-K-U-2c   79.8   91.0   96.7                   146.6                     60.0                374.1
           15     91   10048.68  GRAS  I-K-U-2c   61.7   79.0   91.0                   146.6                     60.0                374.1
           15     92   14518.68  GRAS  I-K-U-2c   61.7   79.0   91.0                   146.6                     60.0                374.1
           15     93    4369.59  GRAS  I-Y-2c-3   68.4   84.0   93.5                   164.6                     70.0                280.6
           15     94    6880.41  GRAS  I-Y-2c-3   68.4   84.0   93.5                   164.6                     70.0                280.6
           15     95    6524.51  BSVG  I-K-U-2c   79.8   91.0   96.7                   146.6                     60.0                374.1
           15     96    3885.76  BSVG  I-K-U-2c   79.8   91.0   96.7                   146.6                     60.0                374.1
           15     97    2775.37  BSVG  I-Y-2c-3   85.8   94.0   97.9                   164.6                     70.0                280.6
           15     98    1763.72  BSVG  I-Y-2c-3   85.8   94.0   97.9                   164.6                     70.0                280.6
           15     99    4567.72  BARR  GLACIER-   85.8   94.0   97.9                    61.0                     15.2                312.9
           15    100    4170.67  BARR  I-K-U-2c   79.8   91.0   96.7                   146.6                     60.0                374.1
           15    101    3710.52  BARR  I-K-U-2c   79.8   91.0   96.7                   146.6                     60.0                374.1
           15    102    1534.24  BARR  I-Y-2c-3   85.8   94.0   97.9                   164.6                     70.0                280.6
           15    103    3385.20  BARR  I-Y-2c-3   85.8   94.0   97.9                   164.6                     70.0                280.6
           15    104    7505.63  WATR  GLACIER-   81.7   92.0   97.1                    61.0                     15.2                312.9
           15    105    1815.21  WATR  GLACIER-   81.7   92.0   97.1                    61.0                     15.2                312.9
           16    106    1556.21  GRAS  I-Bh-2c-   61.7   79.0   91.0                   137.2                     70.0                394.8
           16    107    8876.59  GRAS  I-Bh-2c-   61.7   79.0   91.0                   137.2                     70.0                394.8
           16    108    1219.79  BSVG  I-Bh-2c-   79.8   91.0   96.7                   137.2                     70.0                394.8
           16    109    3820.81  BSVG  I-Bh-2c-   79.8   91.0   96.7                   137.2                     70.0                394.8
           16    110    8702.84  BARR  I-Bh-2c-   79.8   91.0   96.7                   137.2                     70.0                394.8
           16    111    1657.57  BARR  I-Y-2c-3   85.8   94.0   97.9                   164.6                     70.0                280.6
           16    112    2190.19  WATR  I-Bh-2c-   81.7   92.0   97.1                   137.2                     70.0                394.8
           16    113    1902.27  WATR  I-Y-2c-3   81.7   92.0   97.1                   164.6                     70.0                280.6
           17    114    3778.60  GRAS  I-Bh-2c-   61.7   79.0   91.0                   137.2                     70.0                394.8
           17    115    3571.53  GRAS  I-K-U-2c   61.7   79.0   91.0                   146.6                     60.0                374.1
           17    116   13491.67  GRAS  I-K-U-2c   61.7   79.0   91.0                   146.6                     60.0                374.1
           17    117    9331.47  BSVG  I-K-U-2c   79.8   91.0   96.7                   146.6                     60.0                374.1
           17    118    6132.91  BSVG  I-K-U-2c   79.8   91.0   96.7                   146.6                     60.0                374.1
           17    119   10214.66  BARR  I-K-U-2c   79.8   91.0   96.7                   146.6                     60.0                374.1
           17    120   10552.48  BARR  I-K-U-2c   79.8   91.0   96.7                   146.6                     60.0                374.1
           18    121    2685.91  AGRC  I-Bh-2c-   64.3   81.0   92.0                   137.2                     70.0                394.8
           18    122   17743.01  AGRC  I-Bh-2c-   64.3   81.0   92.0                   137.2                     70.0                394.8
           18    123    6206.95  GRAS  GLACIER-   68.4   84.0   93.5                    61.0                     15.2                312.9
           18    124    4294.86  GRAS  I-Bh-2c-   61.7   79.0   91.0                   137.2                     70.0                394.8
           18    125   32254.79  GRAS  I-Bh-2c-   61.7   79.0   91.0                   137.2                     70.0                394.8
           19    126    1043.80  SHRB  I-K-U-2c   67.0   83.0   93.1                   146.6                     60.0                374.1
           19    127    1053.10  SHRB  I-K-U-2c   67.0   83.0   93.1                   146.6                     60.0                374.1
           19    128    1563.08  GRAS  I-Bh-2c-   61.7   79.0   91.0                   137.2                     70.0                394.8
           19    129    5121.29  GRAS  I-K-U-2c   61.7   79.0   91.0                   146.6                     60.0                374.1
           19    130     792.00  GRAS  I-K-U-2c   61.7   79.0   91.0                   146.6                     60.0                374.1
           19    131     954.24  BSVG  I-K-U-2c   79.8   91.0   96.7                   146.6                     60.0                374.1
           19    132    2318.45  BSVG  I-K-U-2c   79.8   91.0   96.7                   146.6                     60.0                374.1
           19    133    1970.91  BARR  I-K-U-2c   79.8   91.0   96.7                   146.6                     60.0                374.1
           19    134     519.08  BARR  I-K-U-2c   79.8   91.0   96.7                   146.6                     60.0                374.1
           20    135   12865.76  AGRC  I-Bh-2c-   64.3   81.0   92.0                   137.2                     70.0                394.8
           20    136    1629.83  AGRC  I-Bh-2c-   64.3   81.0   92.0                   137.2                     70.0                394.8
           20    137   15147.84  AGRC  I-K-U-2c   64.3   81.0   92.0                   146.6                     60.0                374.1
           20    138   37225.75  GRAS  I-Bh-2c-   61.7   79.0   91.0                   137.2                     70.0                394.8
           20    139   36800.48  GRAS  I-K-U-2c   61.7   79.0   91.0                   146.6                     60.0                374.1
           21    140   16863.30  GRAS  I-Bh-2c-   61.7   79.0   91.0                   137.2                     70.0                394.8
           21    141    7451.67  BARR  I-Bh-2c-   79.8   91.0   96.7                   137.2                     70.0                394.8
           22    142   27186.56  AGRC  I-Bh-2c-   64.3   81.0   92.0                   137.2                     70.0                394.8
           22    143    8972.18  AGRC  I-Bh-2c-   64.3   81.0   92.0                   137.2                     70.0                394.8
           22    144   44322.93  GRAS  I-Bh-2c-   61.7   79.0   91.0                   137.2                     70.0                394.8
           22    145    6849.78  GRAS  I-Bh-2c-   61.7   79.0   91.0                   137.2                     70.0                394.8
           23    146    1526.55  GRAS  I-Bh-2c-   61.7   79.0   91.0                   137.2                     70.0                394.8
           23    147   12040.87  GRAS  I-Bh-2c-   61.7   79.0   91.0                   137.2                     70.0                394.8
           23    148    3728.33  GRAS  I-Y-2c-3   68.4   84.0   93.5                   164.6                     70.0                280.6
           23    149     717.63  BSVG  I-Bh-2c-   79.8   91.0   96.7                   137.2                     70.0                394.8
           23    150    5390.09  BSVG  I-Bh-2c-   79.8   91.0   96.7                   137.2                     70.0                394.8
           23    151     128.67  BSVG  I-Y-2c-3   85.8   94.0   97.9                   164.6                     70.0                280.6
           23    152     759.15  BSVG  I-Y-2c-3   85.8   94.0   97.9                   164.6                     70.0                280.6
           23    153   13260.13  BARR  I-Bh-2c-   79.8   91.0   96.7                   137.2                     70.0                394.8
           23    154   10667.17  BARR  I-Y-2c-3   85.8   94.0   97.9                   164.6                     70.0                280.6
           23    155    1350.53  WATR  I-Bh-2c-   81.7   92.0   97.1                   137.2                     70.0                394.8
           23    156    7082.67  WATR  I-Y-2c-3   81.7   92.0   97.1                   164.6                     70.0                280.6

         HRU Input Summary Table 2:
          Sub   HRU   Area(ha)         SoilName Hydgrp MaxRtDpth(mm) Albedo USLE_K USLE_P USLE_LS ProfileAWC(mm) IniSoilH2O(mm)
            1      1   24160.27 I-Y-2c-3733        D           360.00   0.12   0.30   1.00    0.82     70.000          7.139
            1      2   19584.21 I-Y-2c-3733        D           360.00   0.12   0.30   1.00    3.86     70.000          7.139
            1      3   11677.69 I-Y-2c-3733        D           100.00   0.12   0.30   1.00    6.90     70.000          7.139
            1      4    7042.90 I-Y-2c-3733        D           360.00   0.12   0.30   1.00    5.87     70.000          7.139
            1      5    1623.71 I-Y-2c-3733        D           360.00   0.12   0.30   1.00    1.25     70.000          7.139
            2      6    8424.82 I-Y-2c-3733        D           360.00   0.12   0.30   1.00    3.21     70.000         24.463
            2      7   12521.98 I-Y-2c-3733        D           360.00   0.12   0.30   1.00    0.82     70.000         24.463
            2      8    3048.09 GLACIER-6998       D           100.00   0.23   0.01   1.00    8.78     15.240          5.326
            2      9    1725.85 I-Y-2c-3733        D           100.00   0.12   0.30   1.00    0.77     70.000         24.463
            2     10    2763.74 I-Y-2c-3733        D           100.00   0.12   0.30   1.00    4.71     70.000         24.463
            2     11    7472.57 GLACIER-6998       D          1524.00   0.23   0.01   1.00    5.85     15.240          5.326
            2     12    3822.42 GLACIER-6998       D          1524.00   0.23   0.01   1.00    1.13     15.240          5.326
            2     13     489.79 I-Y-2c-3733        D           360.00   0.12   0.30   1.00    0.52     70.000         24.463
            2     14    1114.51 I-Y-2c-3733        D           360.00   0.12   0.30   1.00    6.90     70.000         24.463
            3     15    2686.61 I-Bh-2c-3094       C           360.00   0.10   0.25   1.00    1.05     70.000          4.290
            3     16    7250.32 I-Bh-2c-3094       C           360.00   0.10   0.25   1.00    4.19     70.000          4.290
            3     17   24102.34 I-Bh-2c-3094       C           360.00   0.10   0.25   1.00    6.12     70.000          4.290
            3     18    5384.05 I-Bh-2c-3094       C           360.00   0.10   0.25   1.00    1.03     70.000          4.290
            3     19   10798.43 I-Bh-2c-3094       C           100.00   0.10   0.25   1.00    8.67     70.000          4.290
            4     20    3001.48 I-Bh-2c-3094       C           360.00   0.10   0.25   1.00    0.93     70.000         33.404
            4     21    9917.16 I-Bh-2c-3094       C           360.00   0.10   0.25   1.00    4.80     70.000         33.404
            4     22     338.22 I-K-U-2c-3723      C           350.00   0.10   0.24   1.00    1.25     60.000         28.632
            4     23    1645.21 I-K-U-2c-3723      C           350.00   0.10   0.24   1.00    3.25     60.000         28.632
            4     24   30365.36 I-Bh-2c-3094       C           360.00   0.10   0.25   1.00    6.98     70.000         33.404
            4     25    6251.01 I-Bh-2c-3094       C           360.00   0.10   0.25   1.00    0.87     70.000         33.404
            4     26    1098.91 I-K-U-2c-3723      C           350.00   0.10   0.24   1.00    1.23     60.000         28.632
            4     27    7333.74 I-K-U-2c-3723      C           350.00   0.10   0.24   1.00    5.32     60.000         28.632
            4     28    6541.78 I-Y-2c-3733        D           360.00   0.12   0.30   1.00    6.27     70.000         33.404
            4     29    1184.83 I-Y-2c-3733        D           360.00   0.12   0.30   1.00    1.10     70.000         33.404
            4     30   15394.34 I-Bh-2c-3094       C           100.00   0.10   0.25   1.00    8.83     70.000         33.404
            4     31    6188.57 I-K-U-2c-3723      C           100.00   0.10   0.24   1.00    7.83     60.000         28.632
            4     32    6547.96 I-Y-2c-3733        D           100.00   0.12   0.30   1.00    8.83     70.000         33.404
            5     33     586.80 I-Bh-2c-3094       C           360.00   0.10   0.25   1.00    1.13     70.000         23.763
            5     34    3783.69 I-Bh-2c-3094       C           360.00   0.10   0.25   1.00    4.03     70.000         23.763
            5     35    6055.94 I-Bh-2c-3094       C           360.00   0.10   0.25   1.00    4.08     70.000         23.763
            5     36    3915.40 I-Bh-2c-3094       C           360.00   0.10   0.25   1.00    0.85     70.000         23.763
            5     37    2791.05 I-Bh-2c-3094       C           100.00   0.10   0.25   1.00    0.65     70.000         23.763
            5     38     466.87 I-Bh-2c-3094       C           100.00   0.10   0.25   1.00    2.71     70.000         23.763
            6     39    1332.86 I-Bh-2c-3094       C           360.00   0.10   0.25   1.00    0.78     70.000         20.922
            6     40    5930.08 I-Bh-2c-3094       C           360.00   0.10   0.25   1.00    4.03     70.000         20.922
            6     41   12912.42 I-Bh-2c-3094       C           360.00   0.10   0.25   1.00    0.77     70.000         20.922
            6     42   20319.17 I-Bh-2c-3094       C           360.00   0.10   0.25   1.00    3.71     70.000         20.922
            7     43    1308.41 I-Bh-2c-3094       C           360.00   0.10   0.25   1.00    1.03     70.000         11.981
            7     44    5413.81 I-Bh-2c-3094       C           360.00   0.10   0.25   1.00    4.89     70.000         11.981
            7     45   18252.90 I-Bh-2c-3094       C           360.00   0.10   0.25   1.00    5.95     70.000         11.981
            7     46    3030.59 I-Bh-2c-3094       C           360.00   0.10   0.25   1.00    1.18     70.000         11.981
            7     47    1044.67 GLACIER-6998       D           100.00   0.23   0.01   1.00    6.45     15.240          2.608
            7     48    4131.45 I-Bh-2c-3094       C           100.00   0.10   0.25   1.00    8.20     70.000         11.981
            7     49     293.05 GLACIER-6998       D          1524.00   0.23   0.01   1.00    1.56     15.240          2.608
            7     50    2209.81 GLACIER-6998       D          1524.00   0.23   0.01   1.00    5.73     15.240          2.608
            7     51    3041.74 I-Bh-2c-3094       C           360.00   0.10   0.25   1.00    7.08     70.000         11.981
            8     52      17.63 I-Bh-2c-3094       C           360.00   0.10   0.25   1.00    0.60     70.000         23.763
            8     53       2.59 I-Bh-2c-3094       C           360.00   0.10   0.25   1.00    1.96     70.000         23.763
            9     54    1413.47 I-Bh-2c-3094       C           360.00   0.10   0.25   1.00    0.72     70.000         23.763
            9     55     999.98 I-Bh-2c-3094       C           360.00   0.10   0.25   1.00    3.25     70.000         23.763
            9     56    1351.45 I-Bh-2c-3094       C           100.00   0.10   0.25   1.00    0.78     70.000         23.763
            9     57     916.20 I-Bh-2c-3094       C           100.00   0.10   0.25   1.00    3.23     70.000         23.763
           10     58     889.21 I-Bh-2c-3094       C           360.00   0.10   0.25   1.00    5.22     70.000         20.922
           10     59     250.23 I-Bh-2c-3094       C           360.00   0.10   0.25   1.00    1.15     70.000         20.922
           10     60      33.06 I-Bh-2c-3094       C           100.00   0.10   0.25   1.00    1.23     70.000         20.922
           10     61     245.10 I-Bh-2c-3094       C           100.00   0.10   0.25   1.00    4.82     70.000         20.922
           11     62    1801.86 GLACIER-6998       D          1300.00   0.23   0.01   1.00    6.77     15.240          5.174
           11     63    1310.90 I-Bh-2c-3094       C           360.00   0.10   0.25   1.00    6.70     70.000         23.763
           11     64     617.06 I-K-U-2c-3723      C           350.00   0.10   0.24   1.00    6.12     60.000         20.368
           11     65    5393.24 GLACIER-6998       D          1524.00   0.23   0.01   1.00    6.20     15.240          5.174
           11     66     910.74 GLACIER-6998       D          1524.00   0.23   0.01   1.00    1.23     15.240          5.174
           11     67    1869.67 I-Bh-2c-3094       C           360.00   0.10   0.25   1.00    1.15     70.000         23.763
           11     68    7457.39 I-Bh-2c-3094       C           360.00   0.10   0.25   1.00    4.84     70.000         23.763
           11     69    4579.47 I-K-U-2c-3723      C           350.00   0.10   0.24   1.00    7.36     60.000         20.368
           11     70     619.51 GLACIER-6998       D           100.00   0.23   0.01   1.00    3.69     15.240          5.174
           11     71     160.00 GLACIER-6998       D           100.00   0.23   0.01   1.00    1.28     15.240          5.174
           11     72     766.62 I-Bh-2c-3094       C           100.00   0.10   0.25   1.00    1.20     70.000         23.763
           11     73    2295.77 I-Bh-2c-3094       C           100.00   0.10   0.25   1.00    4.55     70.000         23.763
           12     74    1074.70 GLACIER-6998       D          1524.00   0.23   0.01   1.00    1.03     15.240          5.765
           12     75    5134.60 GLACIER-6998       D          1524.00   0.23   0.01   1.00    5.92     15.240          5.765
           12     76   16131.20 I-Bh-2c-3094       C           360.00   0.10   0.25   1.00    5.63     70.000         26.478
           12     77    2665.00 I-Bh-2c-3094       C           360.00   0.10   0.25   1.00    1.18     70.000         26.478
           12     78   10692.09 I-K-U-2c-3723      C           350.00   0.10   0.24   1.00    5.73     60.000         22.696
           12     79    1382.06 I-K-U-2c-3723      C           350.00   0.10   0.24   1.00    1.39     60.000         22.696
           12     80    2785.42 I-Bh-2c-3094       C           100.00   0.10   0.25   1.00    8.09     70.000         26.478
           12     81    6200.84 I-K-U-2c-3723      C           100.00   0.10   0.24   1.00    8.46     60.000         22.696
           13     82   15645.65 I-K-U-2c-3723      C           350.00   0.10   0.24   1.00    0.82     60.000         43.111
           13     83   20883.91 I-K-U-2c-3723      C           350.00   0.10   0.24   1.00    4.57     60.000         43.111
           13     84    7672.23 I-K-U-2c-3723      C           100.00   0.10   0.24   1.00    3.42     60.000         43.111
           13     85    8631.11 I-K-U-2c-3723      C           100.00   0.10   0.24   1.00    0.82     60.000         43.111
           13     86    8131.08 I-K-U-2c-3723      C           100.00   0.10   0.24   1.00    0.72     60.000         43.111
           13     87   16033.59 I-K-U-2c-3723      C           100.00   0.10   0.24   1.00    7.83     60.000         43.111
           14     88     455.85 I-K-U-2c-3723      C           100.00   0.10   0.24   1.00    0.46     60.000         43.111
           14     89     114.25 I-K-U-2c-3723      C           100.00   0.10   0.24   1.00    3.50     60.000         43.111
           14     90     468.48 I-K-U-2c-3723      C           100.00   0.10   0.24   1.00    0.54     60.000         43.111
           15     91   10048.68 I-K-U-2c-3723      C           350.00   0.10   0.24   1.00    0.78     60.000         54.398
           15     92   14518.68 I-K-U-2c-3723      C           350.00   0.10   0.24   1.00    4.89     60.000         54.398
           15     93    4369.59 I-Y-2c-3733        D           360.00   0.12   0.30   1.00    0.80     70.000         63.464
           15     94    6880.41 I-Y-2c-3733        D           360.00   0.12   0.30   1.00    6.47     70.000         63.464
           15     95    6524.51 I-K-U-2c-3723      C           100.00   0.10   0.24   1.00    0.75     60.000         54.398
           15     96    3885.76 I-K-U-2c-3723      C           100.00   0.10   0.24   1.00    4.25     60.000         54.398
           15     97    2775.37 I-Y-2c-3733        D           100.00   0.12   0.30   1.00    8.36     70.000         63.464
           15     98    1763.72 I-Y-2c-3733        D           100.00   0.12   0.30   1.00    0.84     70.000         63.464
           15     99    4567.72 GLACIER-6998       D           100.00   0.23   0.01   1.00   10.62     15.240         13.817
           15    100    4170.67 I-K-U-2c-3723      C           100.00   0.10   0.24   1.00    0.33     60.000         54.398
           15    101    3710.52 I-K-U-2c-3723      C           100.00   0.10   0.24   1.00    7.47     60.000         54.398
           15    102    1534.24 I-Y-2c-3733        D           100.00   0.12   0.30   1.00    0.31     70.000         63.464
           15    103    3385.20 I-Y-2c-3733        D           100.00   0.12   0.30   1.00   10.99     70.000         63.464
           15    104    7505.63 GLACIER-6998       D          1524.00   0.23   0.01   1.00    6.95     15.240         13.817
           15    105    1815.21 GLACIER-6998       D          1524.00   0.23   0.01   1.00    1.42     15.240         13.817
           16    106    1556.21 I-Bh-2c-3094       C           360.00   0.10   0.25   1.00    1.20     70.000         30.433
           16    107    8876.59 I-Bh-2c-3094       C           360.00   0.10   0.25   1.00    6.22     70.000         30.433
           16    108    1219.79 I-Bh-2c-3094       C           100.00   0.10   0.25   1.00    1.05     70.000         30.433
           16    109    3820.81 I-Bh-2c-3094       C           100.00   0.10   0.25   1.00    5.10     70.000         30.433
           16    110    8702.84 I-Bh-2c-3094       C           100.00   0.10   0.25   1.00   10.62     70.000         30.433
           16    111    1657.57 I-Y-2c-3733        D           100.00   0.12   0.30   1.00   11.80     70.000         30.433
           16    112    2190.19 I-Bh-2c-3094       C           360.00   0.10   0.25   1.00   11.24     70.000         30.433
           16    113    1902.27 I-Y-2c-3733        D           360.00   0.12   0.30   1.00   11.82     70.000         30.433
           17    114    3778.60 I-Bh-2c-3094       C           360.00   0.10   0.25   1.00    9.20     70.000         33.404
           17    115    3571.53 I-K-U-2c-3723      C           350.00   0.10   0.24   1.00    0.82     60.000         28.632
           17    116   13491.67 I-K-U-2c-3723      C           350.00   0.10   0.24   1.00    5.61     60.000         28.632
           17    117    9331.47 I-K-U-2c-3723      C           100.00   0.10   0.24   1.00    3.62     60.000         28.632
           17    118    6132.91 I-K-U-2c-3723      C           100.00   0.10   0.24   1.00    0.85     60.000         28.632
           17    119   10214.66 I-K-U-2c-3723      C           100.00   0.10   0.24   1.00    4.91     60.000         28.632
           17    120   10552.48 I-K-U-2c-3723      C           100.00   0.10   0.24   1.00    0.67     60.000         28.632
           18    121    2685.91 I-Bh-2c-3094       C           360.00   0.10   0.25   1.00    0.98     70.000         20.922
           18    122   17743.01 I-Bh-2c-3094       C           360.00   0.10   0.25   1.00    6.70     70.000         20.922
           18    123    6206.95 GLACIER-6998       D          1524.00   0.23   0.01   1.00   10.67     15.240          4.555
           18    124    4294.86 I-Bh-2c-3094       C           360.00   0.10   0.25   1.00    1.10     70.000         20.922
           18    125   32254.79 I-Bh-2c-3094       C           360.00   0.10   0.25   1.00    7.41     70.000         20.922
           19    126    1043.80 I-K-U-2c-3723      C           350.00   0.10   0.24   1.00    3.91     60.000         15.252
           19    127    1053.10 I-K-U-2c-3723      C           350.00   0.10   0.24   1.00    1.00     60.000         15.252
           19    128    1563.08 I-Bh-2c-3094       C           360.00   0.10   0.25   1.00    7.67     70.000         17.794
           19    129    5121.29 I-K-U-2c-3723      C           350.00   0.10   0.24   1.00    5.10     60.000         15.252
           19    130     792.00 I-K-U-2c-3723      C           350.00   0.10   0.24   1.00    1.33     60.000         15.252
           19    131     954.24 I-K-U-2c-3723      C           100.00   0.10   0.24   1.00    0.93     60.000         15.252
           19    132    2318.45 I-K-U-2c-3723      C           100.00   0.10   0.24   1.00    4.43     60.000         15.252
           19    133    1970.91 I-K-U-2c-3723      C           100.00   0.10   0.24   1.00    7.70     60.000         15.252
           19    134     519.08 I-K-U-2c-3723      C           100.00   0.10   0.24   1.00    0.82     60.000         15.252
           20    135   12865.76 I-Bh-2c-3094       C           360.00   0.10   0.25   1.00    6.88     70.000          9.185
           20    136    1629.83 I-Bh-2c-3094       C           360.00   0.10   0.25   1.00    1.13     70.000          9.185
           20    137   15147.84 I-K-U-2c-3723      C           350.00   0.10   0.24   1.00    8.75     60.000          7.873
           20    138   37225.75 I-Bh-2c-3094       C           360.00   0.10   0.25   1.00    7.23     70.000          9.185
           20    139   36800.48 I-K-U-2c-3723      C           350.00   0.10   0.24   1.00    8.83     60.000          7.873
           21    140   16863.30 I-Bh-2c-3094       C           360.00   0.10   0.25   1.00    8.83     70.000         17.794
           21    141    7451.67 I-Bh-2c-3094       C           100.00   0.10   0.25   1.00   10.22     70.000         17.794
           22    142   27186.56 I-Bh-2c-3094       C           360.00   0.10   0.25   1.00    5.34     70.000          1.950
           22    143    8972.18 I-Bh-2c-3094       C           360.00   0.10   0.25   1.00    0.78     70.000          1.950
           22    144   44322.93 I-Bh-2c-3094       C           360.00   0.10   0.25   1.00    5.75     70.000          1.950
           22    145    6849.78 I-Bh-2c-3094       C           360.00   0.10   0.25   1.00    1.03     70.000          1.950
           23    146    1526.55 I-Bh-2c-3094       C           360.00   0.10   0.25   1.00    1.20     70.000         30.433
           23    147   12040.87 I-Bh-2c-3094       C           360.00   0.10   0.25   1.00    7.49     70.000         30.433
           23    148    3728.33 I-Y-2c-3733        D           360.00   0.12   0.30   1.00    7.57     70.000         30.433
           23    149     717.63 I-Bh-2c-3094       C           100.00   0.10   0.25   1.00    1.08     70.000         30.433
           23    150    5390.09 I-Bh-2c-3094       C           100.00   0.10   0.25   1.00    7.83     70.000         30.433
           23    151     128.67 I-Y-2c-3733        D           100.00   0.12   0.30   1.00    1.25     70.000         30.433
           23    152     759.15 I-Y-2c-3733        D           100.00   0.12   0.30   1.00    5.58     70.000         30.433
           23    153   13260.13 I-Bh-2c-3094       C           100.00   0.10   0.25   1.00   10.19     70.000         30.433
           23    154   10667.17 I-Y-2c-3733        D           100.00   0.12   0.30   1.00   10.19     70.000         30.433
           23    155    1350.53 I-Bh-2c-3094       C           360.00   0.10   0.25   1.00   10.06     70.000         30.433
           23    156    7082.67 I-Y-2c-3733        D           360.00   0.12   0.30   1.00   11.05     70.000         30.433

         HRU Input Summary Table 3:
          Sub   HRU   Area(ha) Urban Irrig DrainTiles Pothole Pstcide Biomix Septic
            1      1   24160.27                                          0.20 x
            1      2   19584.21                                          0.20 x
            1      3   11677.69                                          0.20 x
            1      4    7042.90                                          0.20 x
            1      5    1623.71                                          0.20 x
            2      6    8424.82                                          0.20 x
            2      7   12521.98                                          0.20 x
            2      8    3048.09                                          0.20 x
            2      9    1725.85                                          0.20 x
            2     10    2763.74                                          0.20 x
            2     11    7472.57                                          0.20 x
            2     12    3822.42                                          0.20 x
            2     13     489.79                                          0.20 x
            2     14    1114.51                                          0.20 x
            3     15    2686.61                                          0.20 x
            3     16    7250.32                                          0.20 x
            3     17   24102.34                                          0.20 x
            3     18    5384.05                                          0.20 x
            3     19   10798.43                                          0.20 x
            4     20    3001.48                                          0.20 x
            4     21    9917.16                                          0.20 x
            4     22     338.22                                          0.20 x
            4     23    1645.21                                          0.20 x
            4     24   30365.36                                          0.20 x
            4     25    6251.01                                          0.20 x
            4     26    1098.91                                          0.20 x
            4     27    7333.74                                          0.20 x
            4     28    6541.78                                          0.20 x
            4     29    1184.83                                          0.20 x
            4     30   15394.34                                          0.20 x
            4     31    6188.57                                          0.20 x
            4     32    6547.96                                          0.20 x
            5     33     586.80                                          0.20 x
            5     34    3783.69                                          0.20 x
            5     35    6055.94                                          0.20 x
            5     36    3915.40                                          0.20 x
            5     37    2791.05                                          0.20 x
            5     38     466.87                                          0.20 x
            6     39    1332.86                                          0.20 x
            6     40    5930.08                                          0.20 x
            6     41   12912.42                                          0.20 x
            6     42   20319.17                                          0.20 x
            7     43    1308.41                                          0.20 x
            7     44    5413.81                                          0.20 x
            7     45   18252.90                                          0.20 x
            7     46    3030.59                                          0.20 x
            7     47    1044.67                                          0.20 x
            7     48    4131.45                                          0.20 x
            7     49     293.05                                          0.20 x
            7     50    2209.81                                          0.20 x
            7     51    3041.74                                          0.20 x
            8     52      17.63                                          0.20 x
            8     53       2.59                                          0.20 x
            9     54    1413.47                                          0.20 x
            9     55     999.98                                          0.20 x
            9     56    1351.45                                          0.20 x
            9     57     916.20                                          0.20 x
           10     58     889.21                                          0.20 x
           10     59     250.23                                          0.20 x
           10     60      33.06                                          0.20 x
           10     61     245.10                                          0.20 x
           11     62    1801.86                                          0.20 x
           11     63    1310.90                                          0.20 x
           11     64     617.06                                          0.20 x
           11     65    5393.24                                          0.20 x
           11     66     910.74                                          0.20 x
           11     67    1869.67                                          0.20 x
           11     68    7457.39                                          0.20 x
           11     69    4579.47                                          0.20 x
           11     70     619.51                                          0.20 x
           11     71     160.00                                          0.20 x
           11     72     766.62                                          0.20 x
           11     73    2295.77                                          0.20 x
           12     74    1074.70                                          0.20 x
           12     75    5134.60                                          0.20 x
           12     76   16131.20                                          0.20 x
           12     77    2665.00                                          0.20 x
           12     78   10692.09                                          0.20 x
           12     79    1382.06                                          0.20 x
           12     80    2785.42                                          0.20 x
           12     81    6200.84                                          0.20 x
           13     82   15645.65                                          0.20 x
           13     83   20883.91                                          0.20 x
           13     84    7672.23                                          0.20 x
           13     85    8631.11                                          0.20 x
           13     86    8131.08                                          0.20 x
           13     87   16033.59                                          0.20 x
           14     88     455.85                                          0.20 x
           14     89     114.25                                          0.20 x
           14     90     468.48                                          0.20 x
           15     91   10048.68                                          0.20 x
           15     92   14518.68                                          0.20 x
           15     93    4369.59                                          0.20 x
           15     94    6880.41                                          0.20 x
           15     95    6524.51                                          0.20 x
           15     96    3885.76                                          0.20 x
           15     97    2775.37                                          0.20 x
           15     98    1763.72                                          0.20 x
           15     99    4567.72                                          0.20 x
           15    100    4170.67                                          0.20 x
           15    101    3710.52                                          0.20 x
           15    102    1534.24                                          0.20 x
           15    103    3385.20                                          0.20 x
           15    104    7505.63                                          0.20 x
           15    105    1815.21                                          0.20 x
           16    106    1556.21                                          0.20 x
           16    107    8876.59                                          0.20 x
           16    108    1219.79                                          0.20 x
           16    109    3820.81                                          0.20 x
           16    110    8702.84                                          0.20 x
           16    111    1657.57                                          0.20 x
           16    112    2190.19                                          0.20 x
           16    113    1902.27                                          0.20 x
           17    114    3778.60                                          0.20 x
           17    115    3571.53                                          0.20 x
           17    116   13491.67                                          0.20 x
           17    117    9331.47                                          0.20 x
           17    118    6132.91                                          0.20 x
           17    119   10214.66                                          0.20 x
           17    120   10552.48                                          0.20 x
           18    121    2685.91                                          0.20 x
           18    122   17743.01                                          0.20 x
           18    123    6206.95                                          0.20 x
           18    124    4294.86                                          0.20 x
           18    125   32254.79                                          0.20 x
           19    126    1043.80                                          0.20 x
           19    127    1053.10                                          0.20 x
           19    128    1563.08                                          0.20 x
           19    129    5121.29                                          0.20 x
           19    130     792.00                                          0.20 x
           19    131     954.24                                          0.20 x
           19    132    2318.45                                          0.20 x
           19    133    1970.91                                          0.20 x
           19    134     519.08                                          0.20 x
           20    135   12865.76                                          0.20 x
           20    136    1629.83                                          0.20 x
           20    137   15147.84                                          0.20 x
           20    138   37225.75                                          0.20 x
           20    139   36800.48                                          0.20 x
           21    140   16863.30                                          0.20 x
           21    141    7451.67                                          0.20 x
           22    142   27186.56                                          0.20 x
           22    143    8972.18                                          0.20 x
           22    144   44322.93                                          0.20 x
           22    145    6849.78                                          0.20 x
           23    146    1526.55                                          0.20 x
           23    147   12040.87                                          0.20 x
           23    148    3728.33                                          0.20 x
           23    149     717.63                                          0.20 x
           23    150    5390.09                                          0.20 x
           23    151     128.67                                          0.20 x
           23    152     759.15                                          0.20 x
           23    153   13260.13                                          0.20 x
           23    154   10667.17                                          0.20 x
           23    155    1350.53                                          0.20 x
           23    156    7082.67                                          0.20 x

         HRU Input Summary Table 4 (Groundwater):
          Sub   HRU   Area(ha) GWdelay(days), GWalpha(days) GWQmin(mm) GWrevap Revapmin(mm) Deepfr NO3(ppm) SolP(ppm)
            1      1   24160.27        31.000         0.048   1000.000   0.020      750.000  0.050    0.000     0.000
            1      2   19584.21        31.000         0.048   1000.000   0.020      750.000  0.050    0.000     0.000
            1      3   11677.69        31.000         0.048   1000.000   0.020      750.000  0.050    0.000     0.000
            1      4    7042.90        31.000         0.048   1000.000   0.020      750.000  0.050    0.000     0.000
            1      5    1623.71        31.000         0.048   1000.000   0.020      750.000  0.050    0.000     0.000
            2      6    8424.82        31.000         0.048   1000.000   0.020      750.000  0.050    0.000     0.000
            2      7   12521.98        31.000         0.048   1000.000   0.020      750.000  0.050    0.000     0.000
            2      8    3048.09        31.000         0.048   1000.000   0.020      750.000  0.050    0.000     0.000
            2      9    1725.85        31.000         0.048   1000.000   0.020      750.000  0.050    0.000     0.000
            2     10    2763.74        31.000         0.048   1000.000   0.020      750.000  0.050    0.000     0.000
            2     11    7472.57        31.000         0.048   1000.000   0.020      750.000  0.050    0.000     0.000
            2     12    3822.42        31.000         0.048   1000.000   0.020      750.000  0.050    0.000     0.000
            2     13     489.79        31.000         0.048   1000.000   0.020      750.000  0.050    0.000     0.000
            2     14    1114.51        31.000         0.048   1000.000   0.020      750.000  0.050    0.000     0.000
            3     15    2686.61        31.000         0.048   1000.000   0.020      750.000  0.050    0.000     0.000
            3     16    7250.32        31.000         0.048   1000.000   0.020      750.000  0.050    0.000     0.000
            3     17   24102.34        31.000         0.048   1000.000   0.020      750.000  0.050    0.000     0.000
            3     18    5384.05        31.000         0.048   1000.000   0.020      750.000  0.050    0.000     0.000
            3     19   10798.43        31.000         0.048   1000.000   0.020      750.000  0.050    0.000     0.000
            4     20    3001.48        31.000         0.048   1000.000   0.020      750.000  0.050    0.000     0.000
            4     21    9917.16        31.000         0.048   1000.000   0.020      750.000  0.050    0.000     0.000
            4     22     338.22        31.000         0.048   1000.000   0.020      750.000  0.050    0.000     0.000
            4     23    1645.21        31.000         0.048   1000.000   0.020      750.000  0.050    0.000     0.000
            4     24   30365.36        31.000         0.048   1000.000   0.020      750.000  0.050    0.000     0.000
            4     25    6251.01        31.000         0.048   1000.000   0.020      750.000  0.050    0.000     0.000
            4     26    1098.91        31.000         0.048   1000.000   0.020      750.000  0.050    0.000     0.000
            4     27    7333.74        31.000         0.048   1000.000   0.020      750.000  0.050    0.000     0.000
            4     28    6541.78        31.000         0.048   1000.000   0.020      750.000  0.050    0.000     0.000
            4     29    1184.83        31.000         0.048   1000.000   0.020      750.000  0.050    0.000     0.000
            4     30   15394.34        31.000         0.048   1000.000   0.020      750.000  0.050    0.000     0.000
            4     31    6188.57        31.000         0.048   1000.000   0.020      750.000  0.050    0.000     0.000
            4     32    6547.96        31.000         0.048   1000.000   0.020      750.000  0.050    0.000     0.000
            5     33     586.80        31.000         0.048   1000.000   0.020      750.000  0.050    0.000     0.000
            5     34    3783.69        31.000         0.048   1000.000   0.020      750.000  0.050    0.000     0.000
            5     35    6055.94        31.000         0.048   1000.000   0.020      750.000  0.050    0.000     0.000
            5     36    3915.40        31.000         0.048   1000.000   0.020      750.000  0.050    0.000     0.000
            5     37    2791.05        31.000         0.048   1000.000   0.020      750.000  0.050    0.000     0.000
            5     38     466.87        31.000         0.048   1000.000   0.020      750.000  0.050    0.000     0.000
            6     39    1332.86        31.000         0.048   1000.000   0.020      750.000  0.050    0.000     0.000
            6     40    5930.08        31.000         0.048   1000.000   0.020      750.000  0.050    0.000     0.000
            6     41   12912.42        31.000         0.048   1000.000   0.020      750.000  0.050    0.000     0.000
            6     42   20319.17        31.000         0.048   1000.000   0.020      750.000  0.050    0.000     0.000
            7     43    1308.41        31.000         0.048   1000.000   0.020      750.000  0.050    0.000     0.000
            7     44    5413.81        31.000         0.048   1000.000   0.020      750.000  0.050    0.000     0.000
            7     45   18252.90        31.000         0.048   1000.000   0.020      750.000  0.050    0.000     0.000
            7     46    3030.59        31.000         0.048   1000.000   0.020      750.000  0.050    0.000     0.000
            7     47    1044.67        31.000         0.048   1000.000   0.020      750.000  0.050    0.000     0.000
            7     48    4131.45        31.000         0.048   1000.000   0.020      750.000  0.050    0.000     0.000
            7     49     293.05        31.000         0.048   1000.000   0.020      750.000  0.050    0.000     0.000
            7     50    2209.81        31.000         0.048   1000.000   0.020      750.000  0.050    0.000     0.000
            7     51    3041.74        31.000         0.048   1000.000   0.020      750.000  0.050    0.000     0.000
            8     52      17.63        31.000         0.048   1000.000   0.020      750.000  0.050    0.000     0.000
            8     53       2.59        31.000         0.048   1000.000   0.020      750.000  0.050    0.000     0.000
            9     54    1413.47        31.000         0.048   1000.000   0.020      750.000  0.050    0.000     0.000
            9     55     999.98        31.000         0.048   1000.000   0.020      750.000  0.050    0.000     0.000
            9     56    1351.45        31.000         0.048   1000.000   0.020      750.000  0.050    0.000     0.000
            9     57     916.20        31.000         0.048   1000.000   0.020      750.000  0.050    0.000     0.000
           10     58     889.21        31.000         0.048   1000.000   0.020      750.000  0.050    0.000     0.000
           10     59     250.23        31.000         0.048   1000.000   0.020      750.000  0.050    0.000     0.000
           10     60      33.06        31.000         0.048   1000.000   0.020      750.000  0.050    0.000     0.000
           10     61     245.10        31.000         0.048   1000.000   0.020      750.000  0.050    0.000     0.000
           11     62    1801.86        31.000         0.048   1000.000   0.020      750.000  0.050    0.000     0.000
           11     63    1310.90        31.000         0.048   1000.000   0.020      750.000  0.050    0.000     0.000
           11     64     617.06        31.000         0.048   1000.000   0.020      750.000  0.050    0.000     0.000
           11     65    5393.24        31.000         0.048   1000.000   0.020      750.000  0.050    0.000     0.000
           11     66     910.74        31.000         0.048   1000.000   0.020      750.000  0.050    0.000     0.000
           11     67    1869.67        31.000         0.048   1000.000   0.020      750.000  0.050    0.000     0.000
           11     68    7457.39        31.000         0.048   1000.000   0.020      750.000  0.050    0.000     0.000
           11     69    4579.47        31.000         0.048   1000.000   0.020      750.000  0.050    0.000     0.000
           11     70     619.51        31.000         0.048   1000.000   0.020      750.000  0.050    0.000     0.000
           11     71     160.00        31.000         0.048   1000.000   0.020      750.000  0.050    0.000     0.000
           11     72     766.62        31.000         0.048   1000.000   0.020      750.000  0.050    0.000     0.000
           11     73    2295.77        31.000         0.048   1000.000   0.020      750.000  0.050    0.000     0.000
           12     74    1074.70        31.000         0.048   1000.000   0.020      750.000  0.050    0.000     0.000
           12     75    5134.60        31.000         0.048   1000.000   0.020      750.000  0.050    0.000     0.000
           12     76   16131.20        31.000         0.048   1000.000   0.020      750.000  0.050    0.000     0.000
           12     77    2665.00        31.000         0.048   1000.000   0.020      750.000  0.050    0.000     0.000
           12     78   10692.09        31.000         0.048   1000.000   0.020      750.000  0.050    0.000     0.000
           12     79    1382.06        31.000         0.048   1000.000   0.020      750.000  0.050    0.000     0.000
           12     80    2785.42        31.000         0.048   1000.000   0.020      750.000  0.050    0.000     0.000
           12     81    6200.84        31.000         0.048   1000.000   0.020      750.000  0.050    0.000     0.000
           13     82   15645.65        31.000         0.048   1000.000   0.020      750.000  0.050    0.000     0.000
           13     83   20883.91        31.000         0.048   1000.000   0.020      750.000  0.050    0.000     0.000
           13     84    7672.23        31.000         0.048   1000.000   0.020      750.000  0.050    0.000     0.000
           13     85    8631.11        31.000         0.048   1000.000   0.020      750.000  0.050    0.000     0.000
           13     86    8131.08        31.000         0.048   1000.000   0.020      750.000  0.050    0.000     0.000
           13     87   16033.59        31.000         0.048   1000.000   0.020      750.000  0.050    0.000     0.000
           14     88     455.85        31.000         0.048   1000.000   0.020      750.000  0.050    0.000     0.000
           14     89     114.25        31.000         0.048   1000.000   0.020      750.000  0.050    0.000     0.000
           14     90     468.48        31.000         0.048   1000.000   0.020      750.000  0.050    0.000     0.000
           15     91   10048.68        31.000         0.048   1000.000   0.020      750.000  0.050    0.000     0.000
           15     92   14518.68        31.000         0.048   1000.000   0.020      750.000  0.050    0.000     0.000
           15     93    4369.59        31.000         0.048   1000.000   0.020      750.000  0.050    0.000     0.000
           15     94    6880.41        31.000         0.048   1000.000   0.020      750.000  0.050    0.000     0.000
           15     95    6524.51        31.000         0.048   1000.000   0.020      750.000  0.050    0.000     0.000
           15     96    3885.76        31.000         0.048   1000.000   0.020      750.000  0.050    0.000     0.000
           15     97    2775.37        31.000         0.048   1000.000   0.020      750.000  0.050    0.000     0.000
           15     98    1763.72        31.000         0.048   1000.000   0.020      750.000  0.050    0.000     0.000
           15     99    4567.72        31.000         0.048   1000.000   0.020      750.000  0.050    0.000     0.000
           15    100    4170.67        31.000         0.048   1000.000   0.020      750.000  0.050    0.000     0.000
           15    101    3710.52        31.000         0.048   1000.000   0.020      750.000  0.050    0.000     0.000
           15    102    1534.24        31.000         0.048   1000.000   0.020      750.000  0.050    0.000     0.000
           15    103    3385.20        31.000         0.048   1000.000   0.020      750.000  0.050    0.000     0.000
           15    104    7505.63        31.000         0.048   1000.000   0.020      750.000  0.050    0.000     0.000
           15    105    1815.21        31.000         0.048   1000.000   0.020      750.000  0.050    0.000     0.000
           16    106    1556.21        31.000         0.048   1000.000   0.020      750.000  0.050    0.000     0.000
           16    107    8876.59        31.000         0.048   1000.000   0.020      750.000  0.050    0.000     0.000
           16    108    1219.79        31.000         0.048   1000.000   0.020      750.000  0.050    0.000     0.000
           16    109    3820.81        31.000         0.048   1000.000   0.020      750.000  0.050    0.000     0.000
           16    110    8702.84        31.000         0.048   1000.000   0.020      750.000  0.050    0.000     0.000
           16    111    1657.57        31.000         0.048   1000.000   0.020      750.000  0.050    0.000     0.000
           16    112    2190.19        31.000         0.048   1000.000   0.020      750.000  0.050    0.000     0.000
           16    113    1902.27        31.000         0.048   1000.000   0.020      750.000  0.050    0.000     0.000
           17    114    3778.60        31.000         0.048   1000.000   0.020      750.000  0.050    0.000     0.000
           17    115    3571.53        31.000         0.048   1000.000   0.020      750.000  0.050    0.000     0.000
           17    116   13491.67        31.000         0.048   1000.000   0.020      750.000  0.050    0.000     0.000
           17    117    9331.47        31.000         0.048   1000.000   0.020      750.000  0.050    0.000     0.000
           17    118    6132.91        31.000         0.048   1000.000   0.020      750.000  0.050    0.000     0.000
           17    119   10214.66        31.000         0.048   1000.000   0.020      750.000  0.050    0.000     0.000
           17    120   10552.48        31.000         0.048   1000.000   0.020      750.000  0.050    0.000     0.000
           18    121    2685.91        31.000         0.048   1000.000   0.020      750.000  0.050    0.000     0.000
           18    122   17743.01        31.000         0.048   1000.000   0.020      750.000  0.050    0.000     0.000
           18    123    6206.95        31.000         0.048   1000.000   0.020      750.000  0.050    0.000     0.000
           18    124    4294.86        31.000         0.048   1000.000   0.020      750.000  0.050    0.000     0.000
           18    125   32254.79        31.000         0.048   1000.000   0.020      750.000  0.050    0.000     0.000
           19    126    1043.80        31.000         0.048   1000.000   0.020      750.000  0.050    0.000     0.000
           19    127    1053.10        31.000         0.048   1000.000   0.020      750.000  0.050    0.000     0.000
           19    128    1563.08        31.000         0.048   1000.000   0.020      750.000  0.050    0.000     0.000
           19    129    5121.29        31.000         0.048   1000.000   0.020      750.000  0.050    0.000     0.000
           19    130     792.00        31.000         0.048   1000.000   0.020      750.000  0.050    0.000     0.000
           19    131     954.24        31.000         0.048   1000.000   0.020      750.000  0.050    0.000     0.000
           19    132    2318.45        31.000         0.048   1000.000   0.020      750.000  0.050    0.000     0.000
           19    133    1970.91        31.000         0.048   1000.000   0.020      750.000  0.050    0.000     0.000
           19    134     519.08        31.000         0.048   1000.000   0.020      750.000  0.050    0.000     0.000
           20    135   12865.76        31.000         0.048   1000.000   0.020      750.000  0.050    0.000     0.000
           20    136    1629.83        31.000         0.048   1000.000   0.020      750.000  0.050    0.000     0.000
           20    137   15147.84        31.000         0.048   1000.000   0.020      750.000  0.050    0.000     0.000
           20    138   37225.75        31.000         0.048   1000.000   0.020      750.000  0.050    0.000     0.000
           20    139   36800.48        31.000         0.048   1000.000   0.020      750.000  0.050    0.000     0.000
           21    140   16863.30        31.000         0.048   1000.000   0.020      750.000  0.050    0.000     0.000
           21    141    7451.67        31.000         0.048   1000.000   0.020      750.000  0.050    0.000     0.000
           22    142   27186.56        31.000         0.048   1000.000   0.020      750.000  0.050    0.000     0.000
           22    143    8972.18        31.000         0.048   1000.000   0.020      750.000  0.050    0.000     0.000
           22    144   44322.93        31.000         0.048   1000.000   0.020      750.000  0.050    0.000     0.000
           22    145    6849.78        31.000         0.048   1000.000   0.020      750.000  0.050    0.000     0.000
           23    146    1526.55        31.000         0.048   1000.000   0.020      750.000  0.050    0.000     0.000
           23    147   12040.87        31.000         0.048   1000.000   0.020      750.000  0.050    0.000     0.000
           23    148    3728.33        31.000         0.048   1000.000   0.020      750.000  0.050    0.000     0.000
           23    149     717.63        31.000         0.048   1000.000   0.020      750.000  0.050    0.000     0.000
           23    150    5390.09        31.000         0.048   1000.000   0.020      750.000  0.050    0.000     0.000
           23    151     128.67        31.000         0.048   1000.000   0.020      750.000  0.050    0.000     0.000
           23    152     759.15        31.000         0.048   1000.000   0.020      750.000  0.050    0.000     0.000
           23    153   13260.13        31.000         0.048   1000.000   0.020      750.000  0.050    0.000     0.000
           23    154   10667.17        31.000         0.048   1000.000   0.020      750.000  0.050    0.000     0.000
           23    155    1350.53        31.000         0.048   1000.000   0.020      750.000  0.050    0.000     0.000
           23    156    7082.67        31.000         0.048   1000.000   0.020      750.000  0.050    0.000     0.000

         Tributary/Main Channel Characteristics
              |--------------Tributary--------------------|---------------------Main---------------------------|
          Sub  Length(km) Slope Width(m) Cond(mm/hr)     N Length(km) Slope Width(m) Depth(m) Cond(mm/hr)     N
            1       67.62 0.015    62.37      0.0000 0.014      39.99 0.009    62.37     1.73      0.0000 0.014
            2       52.88 0.027    47.98      0.0000 0.014      24.67 0.011    47.98     1.45      0.0000 0.014
            3       65.20 0.024    53.90      0.0000 0.014      36.11 0.013    53.90     1.56      0.0000 0.014
            4       78.29 0.020    79.29      0.0000 0.014      54.38 0.007    79.29     2.02      0.0000 0.014
            5       26.07 0.052    28.68      0.0000 0.014      16.45 0.007   109.37     2.51      0.0000 0.014
            6       48.56 0.016    47.33      0.0000 0.014      20.84 0.012    47.33     1.44      0.0000 0.014
            7       45.01 0.040    46.09      0.0000 0.014      12.10 0.017    46.09     1.41      0.0000 0.014
            8        0.88 0.042     0.49      0.0000 0.014       0.46 0.004    70.81     1.88      0.0000 0.014
            9       14.34 0.055    12.96      0.0000 0.014       9.76 0.006   128.59     2.79      0.0000 0.014
           10        9.44 0.077     6.33      0.0000 0.014       5.28 0.008   155.78     3.18      0.0000 0.014
           11       35.16 0.046    37.72      0.0000 0.014       7.87 0.019    37.72     1.23      0.0000 0.014
           12       56.85 0.031    51.09      0.0000 0.014      32.23 0.015    51.09     1.51      0.0000 0.014
           13       49.30 0.021    69.53      0.0000 0.014      39.84 0.005   116.78     2.62      0.0000 0.014
           14        8.03 0.014     5.25      0.0000 0.014       3.08 0.004   144.76     3.02      0.0000 0.014
           15       78.68 0.020    69.86      0.0000 0.014      44.91 0.009    69.86     1.86      0.0000 0.014
           16       41.00 0.034    39.44      0.0000 0.014      12.16 0.017    39.44     1.27      0.0000 0.014
           17       57.20 0.024    58.10      0.0000 0.014      44.77 0.004   172.00     3.39      0.0000 0.014
           18       55.22 0.032    61.78      0.0000 0.014      49.53 0.007   183.02     3.54      0.0000 0.014
           19       26.59 0.067    26.41      0.0000 0.014      17.04 0.006   192.55     3.66      0.0000 0.014
           20       95.34 0.024    83.15      0.0000 0.014      77.23 0.008   225.86     4.07      0.0000 0.014
           21       28.10 0.057    34.88      0.0000 0.014       7.24 0.022    34.88     1.17      0.0000 0.014
           22       59.13 0.033    75.06      0.0000 0.014      47.19 0.005   328.15     5.22      0.0000 0.014
           23       62.19 0.028    57.91      0.0000 0.014      31.32 0.011    57.91     1.64      0.0000 0.014
